145993094.0
 OpenBabel09092522103D

 52 54  0  0  0  0  0  0  0  0999 V2000
    1.7485    6.7810    2.8920 C   0  0  0  0  0  0  0  0  0  0  0  0
    3.0410    6.1875    2.9210 O   0  0  0  0  0  0  0  0  0  0  0  0
    3.2688    5.1388    2.0742 C   0  0  0  0  0  0  0  0  0  0  0  0
    2.3457    4.5742    1.1962 C   0  0  0  0  0  0  0  0  0  0  0  0
    2.7214    3.5223    0.3546 C   0  0  0  0  0  0  0  0  0  0  0  0
    1.9085    2.9195   -0.5681 O   0  0  0  0  0  0  0  0  0  0  0  0
    0.5856    3.4330   -0.7045 C   0  0  0  0  0  0  0  0  0  0  0  0
    4.0300    3.0166    0.4128 C   0  0  0  0  0  0  0  0  0  0  0  0
    4.9609    3.5720    1.3036 C   0  0  0  0  0  0  0  0  0  0  0  0
    6.3751    3.0720    1.3380 C   0  0  0  0  0  0  0  0  0  0  0  0
    6.6509    2.0072    0.7991 O   0  0  0  0  0  0  0  0  0  0  0  0
    7.2642    3.9803    1.8966 N   0  0  0  0  0  0  0  0  0  0  0  0
    8.4351    3.5562    2.0052 N   0  0  0  0  0  0  0  0  0  0  0  0
    9.3740    4.4275    1.4121 C   0  0  0  0  0  0  0  0  0  0  0  0
    9.0964    5.3567    0.4284 C   0  0  0  0  0  0  0  0  0  0  0  0
    7.9533    5.8749   -0.0133 O   0  0  0  0  0  0  0  0  0  0  0  0
   10.2876    5.6412   -0.1837 N   0  0  0  0  0  0  0  0  0  0  0  0
   10.3921    6.2067   -1.5255 C   0  0  0  0  0  0  0  0  0  0  0  0
   10.6786    7.6805   -1.5424 C   0  0  0  0  0  0  0  0  0  0  0  0
   10.9259    8.3785   -2.6700 C   0  0  0  0  0  0  0  0  0  0  0  0
   10.9468    7.7749   -4.0498 C   0  0  0  0  0  0  0  0  0  0  0  0
   11.1894    9.8592   -2.6352 C   0  0  0  0  0  0  0  0  0  0  0  0
   11.3395    5.1579    0.5706 C   0  0  0  0  0  0  0  0  0  0  0  0
   12.7261    5.2800    0.3871 C   0  0  0  0  0  0  0  0  0  0  0  0
   13.5672    4.7160    1.3466 C   0  0  0  0  0  0  0  0  0  0  0  0
   13.0420    4.0300    2.4390 C   0  0  0  0  0  0  0  0  0  0  0  0
   11.6573    3.8460    2.5732 C   0  0  0  0  0  0  0  0  0  0  0  0
   10.7817    4.4206    1.6257 C   0  0  0  0  0  0  0  0  0  0  0  0
    4.5684    4.6343    2.1279 C   0  0  0  0  0  0  0  0  0  0  0  0
    1.7751    7.6701    3.5284 H   0  0  0  0  0  0  0  0  0  0  0  0
    1.0009    6.0940    3.3014 H   0  0  0  0  0  0  0  0  0  0  0  0
    1.4752    7.1084    1.8825 H   0  0  0  0  0  0  0  0  0  0  0  0
    1.3303    4.9542    1.1654 H   0  0  0  0  0  0  0  0  0  0  0  0
    0.0970    2.8995   -1.5257 H   0  0  0  0  0  0  0  0  0  0  0  0
    0.5928    4.4976   -0.9632 H   0  0  0  0  0  0  0  0  0  0  0  0
    0.0025    3.2531    0.2048 H   0  0  0  0  0  0  0  0  0  0  0  0
    4.3192    2.2087   -0.2521 H   0  0  0  0  0  0  0  0  0  0  0  0
    7.2965    5.6804    0.6799 H   0  0  0  0  0  0  0  0  0  0  0  0
    9.4487    5.9972   -2.0400 H   0  0  0  0  0  0  0  0  0  0  0  0
   11.1828    5.6431   -2.0343 H   0  0  0  0  0  0  0  0  0  0  0  0
   10.6603    8.1921   -0.5869 H   0  0  0  0  0  0  0  0  0  0  0  0
   10.7376    6.6976   -4.0473 H   0  0  0  0  0  0  0  0  0  0  0  0
   11.9266    7.9143   -4.5074 H   0  0  0  0  0  0  0  0  0  0  0  0
   10.1875    8.2460   -4.6793 H   0  0  0  0  0  0  0  0  0  0  0  0
   11.1669   10.2632   -1.6182 H   0  0  0  0  0  0  0  0  0  0  0  0
   10.4351   10.3913   -3.2242 H   0  0  0  0  0  0  0  0  0  0  0  0
   12.1759   10.0751   -3.0594 H   0  0  0  0  0  0  0  0  0  0  0  0
   13.1410    5.8106   -0.4650 H   0  0  0  0  0  0  0  0  0  0  0  0
   14.6442    4.8195    1.2386 H   0  0  0  0  0  0  0  0  0  0  0  0
   13.7164    3.6279    3.1922 H   0  0  0  0  0  0  0  0  0  0  0  0
   11.2645    3.2979    3.4251 H   0  0  0  0  0  0  0  0  0  0  0  0
    5.2672    5.0872    2.8278 H   0  0  0  0  0  0  0  0  0  0  0  0
  1  2  1  0  0  0  0
  1 30  1  0  0  0  0
  1 31  1  0  0  0  0
  1 32  1  0  0  0  0
  2  3  1  0  0  0  0
  3  4  1  0  0  0  0
  3 29  2  0  0  0  0
  4  5  2  0  0  0  0
  4 33  1  0  0  0  0
  5  6  1  0  0  0  0
  5  8  1  0  0  0  0
  6  7  1  0  0  0  0
  7 34  1  0  0  0  0
  7 35  1  0  0  0  0
  7 36  1  0  0  0  0
  8  9  2  0  0  0  0
  8 37  1  0  0  0  0
  9 10  1  0  0  0  0
  9 29  1  0  0  0  0
 10 11  2  0  0  0  0
 10 12  1  0  0  0  0
 12 13  2  3  0  0  0
 13 14  1  0  0  0  0
 14 15  2  0  0  0  0
 14 28  1  0  0  0  0
 15 16  1  0  0  0  0
 15 17  1  0  0  0  0
 16 38  1  0  0  0  0
 17 18  1  0  0  0  0
 17 23  1  0  0  0  0
 18 19  1  0  0  0  0
 18 39  1  0  0  0  0
 18 40  1  0  0  0  0
 19 20  2  0  0  0  0
 19 41  1  0  0  0  0
 20 21  1  0  0  0  0
 20 22  1  0  0  0  0
 21 42  1  0  0  0  0
 21 43  1  0  0  0  0
 21 44  1  0  0  0  0
 22 45  1  0  0  0  0
 22 46  1  0  0  0  0
 22 47  1  0  0  0  0
 23 24  1  0  0  0  0
 23 28  2  0  0  0  0
 24 25  2  0  0  0  0
 24 48  1  0  0  0  0
 25 26  1  0  0  0  0
 25 49  1  0  0  0  0
 26 27  2  0  0  0  0
 26 50  1  0  0  0  0
 27 28  1  0  0  0  0
 27 51  1  0  0  0  0
 29 52  1  0  0  0  0
M  END
>  <Line_Number>
101


> <IC50>
1655

$$$$
