145989286.0
 OpenBabel09092522103D

 47 49  0  0  0  0  0  0  0  0999 V2000
    6.7343    0.2821   -2.1311 C   0  0  0  0  0  0  0  0  0  0  0  0
    5.5399    0.4263   -1.2254 C   0  0  0  0  0  0  0  0  0  0  0  0
    4.1824    0.3872   -1.8681 C   0  0  0  0  0  0  0  0  0  0  0  0
    5.7160    0.5405    0.1065 C   0  0  0  0  0  0  0  0  0  0  0  0
    4.6276    0.6622    1.1369 C   0  0  0  0  0  0  0  0  0  0  0  0
    5.0372    1.4950    2.2666 N   0  0  0  0  0  0  0  0  0  0  0  0
    4.8814    2.8650    2.3686 C   0  0  0  0  0  0  0  0  0  0  0  0
    4.3788    3.6298    1.3945 O   0  0  0  0  0  0  0  0  0  0  0  0
    5.3334    3.2212    3.6240 C   0  0  0  0  0  0  0  0  0  0  0  0
    5.3694    4.5007    4.2045 N   0  0  0  0  0  0  0  0  0  0  0  0
    5.6786    5.3878    3.3845 N   0  0  0  0  0  0  0  0  0  0  0  0
    5.7526    6.6447    3.9460 C   0  0  0  0  0  0  0  0  0  0  0  0
    5.7135    6.9176    5.1447 O   0  0  0  0  0  0  0  0  0  0  0  0
    5.9156    7.7557    2.9549 C   0  0  0  0  0  0  0  0  0  0  0  0
    6.1048    9.0680    3.4098 C   0  0  0  0  0  0  0  0  0  0  0  0
    6.2053   10.1244    2.4984 C   0  0  0  0  0  0  0  0  0  0  0  0
    6.1129    9.8843    1.1226 C   0  0  0  0  0  0  0  0  0  0  0  0
    6.1410   11.0127    0.1340 C   0  0  0  0  0  0  0  0  0  0  0  0
    5.9646    8.5689    0.6678 C   0  0  0  0  0  0  0  0  0  0  0  0
    5.8648    7.5114    1.5755 C   0  0  0  0  0  0  0  0  0  0  0  0
    5.7743    2.0586    4.3072 C   0  0  0  0  0  0  0  0  0  0  0  0
    6.3164    1.8129    5.5850 C   0  0  0  0  0  0  0  0  0  0  0  0
    6.6774    0.5101    5.9454 C   0  0  0  0  0  0  0  0  0  0  0  0
    6.5112   -0.5414    5.0504 C   0  0  0  0  0  0  0  0  0  0  0  0
    5.9735   -0.3244    3.7790 C   0  0  0  0  0  0  0  0  0  0  0  0
    5.6033    0.9864    3.4274 C   0  0  0  0  0  0  0  0  0  0  0  0
    6.4426    0.1900   -3.1820 H   0  0  0  0  0  0  0  0  0  0  0  0
    7.3049   -0.6165   -1.8720 H   0  0  0  0  0  0  0  0  0  0  0  0
    7.3896    1.1551   -2.0481 H   0  0  0  0  0  0  0  0  0  0  0  0
    4.2460    0.2494   -2.9517 H   0  0  0  0  0  0  0  0  0  0  0  0
    3.6443    1.3236   -1.6900 H   0  0  0  0  0  0  0  0  0  0  0  0
    3.5939   -0.4462   -1.4694 H   0  0  0  0  0  0  0  0  0  0  0  0
    6.7349    0.5283    0.4976 H   0  0  0  0  0  0  0  0  0  0  0  0
    4.3710   -0.3280    1.5270 H   0  0  0  0  0  0  0  0  0  0  0  0
    3.7062    1.0927    0.7325 H   0  0  0  0  0  0  0  0  0  0  0  0
    4.2920    3.1176    0.5746 H   0  0  0  0  0  0  0  0  0  0  0  0
    6.1629    9.2769    4.4769 H   0  0  0  0  0  0  0  0  0  0  0  0
    6.3397   11.1369    2.8739 H   0  0  0  0  0  0  0  0  0  0  0  0
    6.2127   11.9844    0.6335 H   0  0  0  0  0  0  0  0  0  0  0  0
    5.2178   11.0106   -0.4552 H   0  0  0  0  0  0  0  0  0  0  0  0
    6.9973   10.9106   -0.5399 H   0  0  0  0  0  0  0  0  0  0  0  0
    5.9067    8.3608   -0.3986 H   0  0  0  0  0  0  0  0  0  0  0  0
    5.7281    6.5037    1.1887 H   0  0  0  0  0  0  0  0  0  0  0  0
    6.4569    2.6320    6.2851 H   0  0  0  0  0  0  0  0  0  0  0  0
    7.0959    0.3223    6.9310 H   0  0  0  0  0  0  0  0  0  0  0  0
    6.8040   -1.5473    5.3425 H   0  0  0  0  0  0  0  0  0  0  0  0
    5.8535   -1.1567    3.0929 H   0  0  0  0  0  0  0  0  0  0  0  0
  1  2  1  0  0  0  0
  1 27  1  0  0  0  0
  1 28  1  0  0  0  0
  1 29  1  0  0  0  0
  2  3  1  0  0  0  0
  2  4  2  0  0  0  0
  3 30  1  0  0  0  0
  3 31  1  0  0  0  0
  3 32  1  0  0  0  0
  4  5  1  0  0  0  0
  4 33  1  0  0  0  0
  5  6  1  0  0  0  0
  5 34  1  0  0  0  0
  5 35  1  0  0  0  0
  6  7  1  0  0  0  0
  6 26  1  0  0  0  0
  7  8  1  0  0  0  0
  7  9  2  0  0  0  0
  8 36  1  0  0  0  0
  9 10  1  0  0  0  0
  9 21  1  0  0  0  0
 10 11  2  3  0  0  0
 11 12  1  0  0  0  0
 12 13  2  0  0  0  0
 12 14  1  0  0  0  0
 14 15  1  0  0  0  0
 14 20  2  0  0  0  0
 15 16  2  0  0  0  0
 15 37  1  0  0  0  0
 16 17  1  0  0  0  0
 16 38  1  0  0  0  0
 17 18  1  0  0  0  0
 17 19  2  0  0  0  0
 18 39  1  0  0  0  0
 18 40  1  0  0  0  0
 18 41  1  0  0  0  0
 19 20  1  0  0  0  0
 19 42  1  0  0  0  0
 20 43  1  0  0  0  0
 21 22  1  0  0  0  0
 21 26  2  0  0  0  0
 22 23  2  0  0  0  0
 22 44  1  0  0  0  0
 23 24  1  0  0  0  0
 23 45  1  0  0  0  0
 24 25  2  0  0  0  0
 24 46  1  0  0  0  0
 25 26  1  0  0  0  0
 25 47  1  0  0  0  0
M  END
>  <Line_Number>
103


> <IC50>
44000

$$$$
