145988430.0
 OpenBabel09092522103D

 48 50  0  0  0  0  0  0  0  0999 V2000
    4.1443   -3.2939    0.0917 C   0  0  0  0  0  0  0  0  0  0  0  0
    4.0385   -1.9486   -0.3650 O   0  0  0  0  0  0  0  0  0  0  0  0
    4.0171   -0.9487    0.5737 C   0  0  0  0  0  0  0  0  0  0  0  0
    3.9801   -1.1981    1.9532 C   0  0  0  0  0  0  0  0  0  0  0  0
    4.0418   -0.1493    2.8731 C   0  0  0  0  0  0  0  0  0  0  0  0
    4.1640    1.1618    2.4288 C   0  0  0  0  0  0  0  0  0  0  0  0
    4.1735    1.4307    1.0602 C   0  0  0  0  0  0  0  0  0  0  0  0
    4.0584    0.3882    0.1207 C   0  0  0  0  0  0  0  0  0  0  0  0
    3.9675    0.7765   -1.3296 C   0  0  0  0  0  0  0  0  0  0  0  0
    4.3257    1.9063   -1.6593 O   0  0  0  0  0  0  0  0  0  0  0  0
    3.5234   -0.2190   -2.1799 N   0  0  0  0  0  0  0  0  0  0  0  0
    3.3315    0.1501   -3.3564 N   0  0  0  0  0  0  0  0  0  0  0  0
    3.9879   -0.6874   -4.2817 C   0  0  0  0  0  0  0  0  0  0  0  0
    5.0591   -1.5101   -4.0090 C   0  0  0  0  0  0  0  0  0  0  0  0
    5.5614   -1.9692   -2.8594 O   0  0  0  0  0  0  0  0  0  0  0  0
    5.6929   -1.7436   -5.1996 N   0  0  0  0  0  0  0  0  0  0  0  0
    7.0967   -2.1211   -5.3017 C   0  0  0  0  0  0  0  0  0  0  0  0
    7.3315   -3.5790   -5.5648 C   0  0  0  0  0  0  0  0  0  0  0  0
    8.5513   -4.1040   -5.7932 C   0  0  0  0  0  0  0  0  0  0  0  0
    9.8203   -3.2907   -5.8140 C   0  0  0  0  0  0  0  0  0  0  0  0
    8.7494   -5.5744   -6.0400 C   0  0  0  0  0  0  0  0  0  0  0  0
    4.8845   -1.3471   -6.2497 C   0  0  0  0  0  0  0  0  0  0  0  0
    5.0785   -1.4533   -7.6371 C   0  0  0  0  0  0  0  0  0  0  0  0
    4.0677   -0.9849   -8.4761 C   0  0  0  0  0  0  0  0  0  0  0  0
    2.9145   -0.4074   -7.9496 C   0  0  0  0  0  0  0  0  0  0  0  0
    2.7649   -0.2337   -6.5640 C   0  0  0  0  0  0  0  0  0  0  0  0
    3.7657   -0.7138   -5.6891 C   0  0  0  0  0  0  0  0  0  0  0  0
    4.2322   -3.9385   -0.7881 H   0  0  0  0  0  0  0  0  0  0  0  0
    3.2422   -3.5916    0.6349 H   0  0  0  0  0  0  0  0  0  0  0  0
    5.0441   -3.4376    0.6991 H   0  0  0  0  0  0  0  0  0  0  0  0
    3.9004   -2.2050    2.3512 H   0  0  0  0  0  0  0  0  0  0  0  0
    4.0046   -0.3623    3.9392 H   0  0  0  0  0  0  0  0  0  0  0  0
    4.2372    1.9758    3.1461 H   0  0  0  0  0  0  0  0  0  0  0  0
    4.2591    2.4643    0.7272 H   0  0  0  0  0  0  0  0  0  0  0  0
    4.8739   -1.7903   -2.1834 H   0  0  0  0  0  0  0  0  0  0  0  0
    7.5790   -1.8289   -4.3606 H   0  0  0  0  0  0  0  0  0  0  0  0
    7.5234   -1.5055   -6.0996 H   0  0  0  0  0  0  0  0  0  0  0  0
    6.4580   -4.2287   -5.5463 H   0  0  0  0  0  0  0  0  0  0  0  0
    9.6553   -2.2282   -5.6154 H   0  0  0  0  0  0  0  0  0  0  0  0
   10.3019   -3.3672   -6.7940 H   0  0  0  0  0  0  0  0  0  0  0  0
   10.5143   -3.6563   -5.0507 H   0  0  0  0  0  0  0  0  0  0  0  0
    7.8055   -6.1286   -6.0276 H   0  0  0  0  0  0  0  0  0  0  0  0
    9.3995   -5.9998   -5.2691 H   0  0  0  0  0  0  0  0  0  0  0  0
    9.2194   -5.7328   -7.0163 H   0  0  0  0  0  0  0  0  0  0  0  0
    5.9811   -1.8937   -8.0529 H   0  0  0  0  0  0  0  0  0  0  0  0
    4.1842   -1.0743   -9.5536 H   0  0  0  0  0  0  0  0  0  0  0  0
    2.1237   -0.0806   -8.6211 H   0  0  0  0  0  0  0  0  0  0  0  0
    1.8678    0.2300   -6.1685 H   0  0  0  0  0  0  0  0  0  0  0  0
  1  2  1  0  0  0  0
  1 28  1  0  0  0  0
  1 29  1  0  0  0  0
  1 30  1  0  0  0  0
  2  3  1  0  0  0  0
  3  4  1  0  0  0  0
  3  8  2  0  0  0  0
  4  5  2  0  0  0  0
  4 31  1  0  0  0  0
  5  6  1  0  0  0  0
  5 32  1  0  0  0  0
  6  7  2  0  0  0  0
  6 33  1  0  0  0  0
  7  8  1  0  0  0  0
  7 34  1  0  0  0  0
  8  9  1  0  0  0  0
  9 10  2  0  0  0  0
  9 11  1  0  0  0  0
 11 12  2  3  0  0  0
 12 13  1  0  0  0  0
 13 14  2  0  0  0  0
 13 27  1  0  0  0  0
 14 15  1  0  0  0  0
 14 16  1  0  0  0  0
 15 35  1  0  0  0  0
 16 17  1  0  0  0  0
 16 22  1  0  0  0  0
 17 18  1  0  0  0  0
 17 36  1  0  0  0  0
 17 37  1  0  0  0  0
 18 19  2  0  0  0  0
 18 38  1  0  0  0  0
 19 20  1  0  0  0  0
 19 21  1  0  0  0  0
 20 39  1  0  0  0  0
 20 40  1  0  0  0  0
 20 41  1  0  0  0  0
 21 42  1  0  0  0  0
 21 43  1  0  0  0  0
 21 44  1  0  0  0  0
 22 23  1  0  0  0  0
 22 27  2  0  0  0  0
 23 24  2  0  0  0  0
 23 45  1  0  0  0  0
 24 25  1  0  0  0  0
 24 46  1  0  0  0  0
 25 26  2  0  0  0  0
 25 47  1  0  0  0  0
 26 27  1  0  0  0  0
 26 48  1  0  0  0  0
M  END
>  <Line_Number>
105


> <IC50>
15600

$$$$
