145981870.0
 OpenBabel09092522103D

 50 52  0  0  0  0  0  0  0  0999 V2000
    1.0164    0.1948    0.0269 C   0  0  0  0  0  0  0  0  0  0  0  0
    2.5061    0.4076   -0.0086 C   0  0  0  0  0  0  0  0  0  0  0  0
    3.0866    1.0051   -1.2589 C   0  0  0  0  0  0  0  0  0  0  0  0
    3.2677    0.0283    1.0371 C   0  0  0  0  0  0  0  0  0  0  0  0
    4.7628    0.1633    1.1330 C   0  0  0  0  0  0  0  0  0  0  0  0
    5.1996    0.3804    2.5113 N   0  0  0  0  0  0  0  0  0  0  0  0
    5.3490    1.6054    3.1362 C   0  0  0  0  0  0  0  0  0  0  0  0
    5.0676    2.7723    2.5534 O   0  0  0  0  0  0  0  0  0  0  0  0
    5.8403    1.3440    4.4036 C   0  0  0  0  0  0  0  0  0  0  0  0
    6.2032    2.2647    5.4036 N   0  0  0  0  0  0  0  0  0  0  0  0
    5.5262    3.3126    5.3787 N   0  0  0  0  0  0  0  0  0  0  0  0
    5.9366    4.2459    6.3097 C   0  0  0  0  0  0  0  0  0  0  0  0
    6.8235    4.1028    7.1496 O   0  0  0  0  0  0  0  0  0  0  0  0
    5.1967    5.5504    6.2560 C   0  0  0  0  0  0  0  0  0  0  0  0
    5.5477    6.5854    7.1375 C   0  0  0  0  0  0  0  0  0  0  0  0
    4.8746    7.8153    7.1003 C   0  0  0  0  0  0  0  0  0  0  0  0
    5.2486    8.9380    8.0239 C   0  0  0  0  0  0  0  0  0  0  0  0
    3.8373    7.9993    6.1759 C   0  0  0  0  0  0  0  0  0  0  0  0
    3.4727    6.9782    5.2917 C   0  0  0  0  0  0  0  0  0  0  0  0
    2.3618    7.1734    4.3024 C   0  0  0  0  0  0  0  0  0  0  0  0
    4.1585    5.7564    5.3350 C   0  0  0  0  0  0  0  0  0  0  0  0
    5.9797   -0.0607    4.5649 C   0  0  0  0  0  0  0  0  0  0  0  0
    6.4157   -0.8966    5.6151 C   0  0  0  0  0  0  0  0  0  0  0  0
    6.4293   -2.2851    5.4366 C   0  0  0  0  0  0  0  0  0  0  0  0
    6.0178   -2.8498    4.2324 C   0  0  0  0  0  0  0  0  0  0  0  0
    5.5798   -2.0429    3.1807 C   0  0  0  0  0  0  0  0  0  0  0  0
    5.5681   -0.6486    3.3661 C   0  0  0  0  0  0  0  0  0  0  0  0
    0.5333    0.5330   -0.8952 H   0  0  0  0  0  0  0  0  0  0  0  0
    0.5671    0.7522    0.8554 H   0  0  0  0  0  0  0  0  0  0  0  0
    0.7822   -0.8687    0.1459 H   0  0  0  0  0  0  0  0  0  0  0  0
    2.3176    1.2124   -2.0091 H   0  0  0  0  0  0  0  0  0  0  0  0
    3.8062    0.3155   -1.7132 H   0  0  0  0  0  0  0  0  0  0  0  0
    3.5888    1.9518   -1.0360 H   0  0  0  0  0  0  0  0  0  0  0  0
    2.7781   -0.4321    1.8968 H   0  0  0  0  0  0  0  0  0  0  0  0
    5.1522    0.9914    0.5328 H   0  0  0  0  0  0  0  0  0  0  0  0
    5.2450   -0.7484    0.7666 H   0  0  0  0  0  0  0  0  0  0  0  0
    4.5942    2.6297    1.7185 H   0  0  0  0  0  0  0  0  0  0  0  0
    6.3533    6.4315    7.8543 H   0  0  0  0  0  0  0  0  0  0  0  0
    6.0698    8.6576    8.6910 H   0  0  0  0  0  0  0  0  0  0  0  0
    4.3910    9.2188    8.6442 H   0  0  0  0  0  0  0  0  0  0  0  0
    5.5696    9.8094    7.4434 H   0  0  0  0  0  0  0  0  0  0  0  0
    3.3118    8.9529    6.1468 H   0  0  0  0  0  0  0  0  0  0  0  0
    1.9312    8.1775    4.3741 H   0  0  0  0  0  0  0  0  0  0  0  0
    1.5617    6.4499    4.4883 H   0  0  0  0  0  0  0  0  0  0  0  0
    2.7383    7.0415    3.2830 H   0  0  0  0  0  0  0  0  0  0  0  0
    3.8733    4.9687    4.6398 H   0  0  0  0  0  0  0  0  0  0  0  0
    6.7369   -0.4632    6.5586 H   0  0  0  0  0  0  0  0  0  0  0  0
    6.7650   -2.9270    6.2478 H   0  0  0  0  0  0  0  0  0  0  0  0
    6.0380   -3.9290    4.1100 H   0  0  0  0  0  0  0  0  0  0  0  0
    5.2611   -2.4997    2.2489 H   0  0  0  0  0  0  0  0  0  0  0  0
  1  2  1  0  0  0  0
  1 28  1  0  0  0  0
  1 29  1  0  0  0  0
  1 30  1  0  0  0  0
  2  3  1  0  0  0  0
  2  4  2  0  0  0  0
  3 31  1  0  0  0  0
  3 32  1  0  0  0  0
  3 33  1  0  0  0  0
  4  5  1  0  0  0  0
  4 34  1  0  0  0  0
  5  6  1  0  0  0  0
  5 35  1  0  0  0  0
  5 36  1  0  0  0  0
  6  7  1  0  0  0  0
  6 27  1  0  0  0  0
  7  8  1  0  0  0  0
  7  9  2  0  0  0  0
  8 37  1  0  0  0  0
  9 10  1  0  0  0  0
  9 22  1  0  0  0  0
 10 11  2  3  0  0  0
 11 12  1  0  0  0  0
 12 13  2  0  0  0  0
 12 14  1  0  0  0  0
 14 15  1  0  0  0  0
 14 21  2  0  0  0  0
 15 16  2  0  0  0  0
 15 38  1  0  0  0  0
 16 17  1  0  0  0  0
 16 18  1  0  0  0  0
 17 39  1  0  0  0  0
 17 40  1  0  0  0  0
 17 41  1  0  0  0  0
 18 19  2  0  0  0  0
 18 42  1  0  0  0  0
 19 20  1  0  0  0  0
 19 21  1  0  0  0  0
 20 43  1  0  0  0  0
 20 44  1  0  0  0  0
 20 45  1  0  0  0  0
 21 46  1  0  0  0  0
 22 23  1  0  0  0  0
 22 27  2  0  0  0  0
 23 24  2  0  0  0  0
 23 47  1  0  0  0  0
 24 25  1  0  0  0  0
 24 48  1  0  0  0  0
 25 26  2  0  0  0  0
 25 49  1  0  0  0  0
 26 27  1  0  0  0  0
 26 50  1  0  0  0  0
M  END
>  <Line_Number>
108


> <IC50>
5565

$$$$
