145993983.0
 OpenBabel09092522103D

 55 58  0  0  0  0  0  0  0  0999 V2000
    1.4614    0.5476    1.7304 C   0  0  0  0  0  0  0  0  0  0  0  0
    2.5851    0.1353    0.8147 C   0  0  0  0  0  0  0  0  0  0  0  0
    2.5628    0.6921   -0.5830 C   0  0  0  0  0  0  0  0  0  0  0  0
    3.5575   -0.6938    1.2521 C   0  0  0  0  0  0  0  0  0  0  0  0
    4.6879   -1.2278    0.4133 C   0  0  0  0  0  0  0  0  0  0  0  0
    5.1711   -2.5338    0.8740 N   0  0  0  0  0  0  0  0  0  0  0  0
    6.1980   -2.7476    1.7762 C   0  0  0  0  0  0  0  0  0  0  0  0
    6.9227   -1.7769    2.3349 O   0  0  0  0  0  0  0  0  0  0  0  0
    6.3062   -4.1197    1.9331 C   0  0  0  0  0  0  0  0  0  0  0  0
    7.2378   -4.8449    2.6995 N   0  0  0  0  0  0  0  0  0  0  0  0
    7.6590   -4.2185    3.6920 N   0  0  0  0  0  0  0  0  0  0  0  0
    8.6473   -4.8752    4.3980 C   0  0  0  0  0  0  0  0  0  0  0  0
    9.1583   -5.9603    4.0995 O   0  0  0  0  0  0  0  0  0  0  0  0
    9.1331   -4.1559    5.6112 C   0  0  0  0  0  0  0  0  0  0  0  0
   10.1682   -4.6907    6.3998 C   0  0  0  0  0  0  0  0  0  0  0  0
   10.5877   -4.0330    7.5664 C   0  0  0  0  0  0  0  0  0  0  0  0
    9.9806   -2.8392    7.9597 C   0  0  0  0  0  0  0  0  0  0  0  0
   10.4431   -2.2580    9.1275 O   0  0  0  0  0  0  0  0  0  0  0  0
   10.4028   -0.8828    9.2440 C   0  0  0  0  0  0  0  0  0  0  0  0
   10.1600   -0.3408   10.5097 C   0  0  0  0  0  0  0  0  0  0  0  0
   10.0062    1.0424   10.6533 C   0  0  0  0  0  0  0  0  0  0  0  0
   10.1034    1.8772    9.5398 C   0  0  0  0  0  0  0  0  0  0  0  0
   10.4155    1.3426    8.2942 C   0  0  0  0  0  0  0  0  0  0  0  0
   10.6085   -0.0284    8.1587 C   0  0  0  0  0  0  0  0  0  0  0  0
    8.9336   -2.3201    7.1892 C   0  0  0  0  0  0  0  0  0  0  0  0
    8.5322   -2.9563    6.0115 C   0  0  0  0  0  0  0  0  0  0  0  0
    5.3444   -4.7582    1.1057 C   0  0  0  0  0  0  0  0  0  0  0  0
    4.9860   -6.1003    0.8685 C   0  0  0  0  0  0  0  0  0  0  0  0
    3.9787   -6.3996   -0.0506 C   0  0  0  0  0  0  0  0  0  0  0  0
    3.3295   -5.3806   -0.7394 C   0  0  0  0  0  0  0  0  0  0  0  0
    3.6630   -4.0402   -0.5214 C   0  0  0  0  0  0  0  0  0  0  0  0
    4.6585   -3.7472    0.4274 C   0  0  0  0  0  0  0  0  0  0  0  0
    0.8114    1.2986    1.2684 H   0  0  0  0  0  0  0  0  0  0  0  0
    1.8510    0.9820    2.6566 H   0  0  0  0  0  0  0  0  0  0  0  0
    0.8369   -0.3175    1.9770 H   0  0  0  0  0  0  0  0  0  0  0  0
    1.7451    1.4043   -0.7298 H   0  0  0  0  0  0  0  0  0  0  0  0
    2.4354   -0.1091   -1.3173 H   0  0  0  0  0  0  0  0  0  0  0  0
    3.4951    1.2273   -0.7944 H   0  0  0  0  0  0  0  0  0  0  0  0
    3.5215   -1.0350    2.2875 H   0  0  0  0  0  0  0  0  0  0  0  0
    5.5276   -0.5254    0.4209 H   0  0  0  0  0  0  0  0  0  0  0  0
    4.3871   -1.3431   -0.6402 H   0  0  0  0  0  0  0  0  0  0  0  0
    6.7319   -0.9160    1.9308 H   0  0  0  0  0  0  0  0  0  0  0  0
   10.6559   -5.6193    6.1064 H   0  0  0  0  0  0  0  0  0  0  0  0
   11.3929   -4.4539    8.1650 H   0  0  0  0  0  0  0  0  0  0  0  0
   10.0715   -0.9847   11.3815 H   0  0  0  0  0  0  0  0  0  0  0  0
    9.7953    1.4711   11.6306 H   0  0  0  0  0  0  0  0  0  0  0  0
    9.9396    2.9483    9.6404 H   0  0  0  0  0  0  0  0  0  0  0  0
   10.5028    1.9838    7.4206 H   0  0  0  0  0  0  0  0  0  0  0  0
   10.8733   -0.4295    7.1841 H   0  0  0  0  0  0  0  0  0  0  0  0
    8.4269   -1.4018    7.4726 H   0  0  0  0  0  0  0  0  0  0  0  0
    7.7453   -2.4966    5.4177 H   0  0  0  0  0  0  0  0  0  0  0  0
    5.5032   -6.8996    1.3922 H   0  0  0  0  0  0  0  0  0  0  0  0
    3.7012   -7.4359   -0.2257 H   0  0  0  0  0  0  0  0  0  0  0  0
    2.5543   -5.6310   -1.4602 H   0  0  0  0  0  0  0  0  0  0  0  0
    3.1433   -3.2587   -1.0739 H   0  0  0  0  0  0  0  0  0  0  0  0
  1  2  1  0  0  0  0
  1 33  1  0  0  0  0
  1 34  1  0  0  0  0
  1 35  1  0  0  0  0
  2  3  1  0  0  0  0
  2  4  2  0  0  0  0
  3 36  1  0  0  0  0
  3 37  1  0  0  0  0
  3 38  1  0  0  0  0
  4  5  1  0  0  0  0
  4 39  1  0  0  0  0
  5  6  1  0  0  0  0
  5 40  1  0  0  0  0
  5 41  1  0  0  0  0
  6  7  1  0  0  0  0
  6 32  1  0  0  0  0
  7  8  1  0  0  0  0
  7  9  2  0  0  0  0
  8 42  1  0  0  0  0
  9 10  1  0  0  0  0
  9 27  1  0  0  0  0
 10 11  2  3  0  0  0
 11 12  1  0  0  0  0
 12 13  2  0  0  0  0
 12 14  1  0  0  0  0
 14 15  1  0  0  0  0
 14 26  2  0  0  0  0
 15 16  2  0  0  0  0
 15 43  1  0  0  0  0
 16 17  1  0  0  0  0
 16 44  1  0  0  0  0
 17 18  1  0  0  0  0
 17 25  2  0  0  0  0
 18 19  1  0  0  0  0
 19 20  1  0  0  0  0
 19 24  2  0  0  0  0
 20 21  2  0  0  0  0
 20 45  1  0  0  0  0
 21 22  1  0  0  0  0
 21 46  1  0  0  0  0
 22 23  2  0  0  0  0
 22 47  1  0  0  0  0
 23 24  1  0  0  0  0
 23 48  1  0  0  0  0
 24 49  1  0  0  0  0
 25 26  1  0  0  0  0
 25 50  1  0  0  0  0
 26 51  1  0  0  0  0
 27 28  1  0  0  0  0
 27 32  2  0  0  0  0
 28 29  2  0  0  0  0
 28 52  1  0  0  0  0
 29 30  1  0  0  0  0
 29 53  1  0  0  0  0
 30 31  2  0  0  0  0
 30 54  1  0  0  0  0
 31 32  1  0  0  0  0
 31 55  1  0  0  0  0
M  END
>  <Line_Number>
109


> <IC50>
32250

$$$$
