70761.0
 OpenBabel09092522103D

 20 20  0  0  0  0  0  0  0  0999 V2000
    2.9029   -0.5812   -1.2596 C   0  0  0  0  0  0  0  0  0  0  0  0
    2.5001   -0.0121    0.0918 C   0  0  0  0  0  0  0  0  0  0  0  0
    2.9814    1.4039    0.2844 C   0  0  0  0  0  0  0  0  0  0  0  0
    4.2410    1.6599    0.8534 C   0  0  0  0  0  0  0  0  0  0  0  0
    4.6860    2.9715    1.0483 C   0  0  0  0  0  0  0  0  0  0  0  0
    3.8695    4.0280    0.6645 C   0  0  0  0  0  0  0  0  0  0  0  0
    4.2431    5.3319    0.8388 O   0  0  0  0  0  0  0  0  0  0  0  0
    2.6274    3.7815    0.0851 C   0  0  0  0  0  0  0  0  0  0  0  0
    1.8331    4.8273   -0.2915 O   0  0  0  0  0  0  0  0  0  0  0  0
    2.1787    2.4835   -0.1121 C   0  0  0  0  0  0  0  0  0  0  0  0
    2.5063   -1.5955   -1.3746 H   0  0  0  0  0  0  0  0  0  0  0  0
    3.9929   -0.6307   -1.3604 H   0  0  0  0  0  0  0  0  0  0  0  0
    2.5157    0.0300   -2.0818 H   0  0  0  0  0  0  0  0  0  0  0  0
    2.8971   -0.6470    0.8928 H   0  0  0  0  0  0  0  0  0  0  0  0
    1.4088   -0.0443    0.1950 H   0  0  0  0  0  0  0  0  0  0  0  0
    4.8797    0.8321    1.1552 H   0  0  0  0  0  0  0  0  0  0  0  0
    5.6590    3.1419    1.4965 H   0  0  0  0  0  0  0  0  0  0  0  0
    5.1149    5.3387    1.2699 H   0  0  0  0  0  0  0  0  0  0  0  0
    2.3493    5.6221   -0.0506 H   0  0  0  0  0  0  0  0  0  0  0  0
    1.2052    2.3184   -0.5654 H   0  0  0  0  0  0  0  0  0  0  0  0
  1  2  1  0  0  0  0
  1 11  1  0  0  0  0
  1 12  1  0  0  0  0
  1 13  1  0  0  0  0
  2  3  1  0  0  0  0
  2 14  1  0  0  0  0
  2 15  1  0  0  0  0
  3  4  1  0  0  0  0
  3 10  2  0  0  0  0
  4  5  2  0  0  0  0
  4 16  1  0  0  0  0
  5  6  1  0  0  0  0
  5 17  1  0  0  0  0
  6  7  1  0  0  0  0
  6  8  2  0  0  0  0
  7 18  1  0  0  0  0
  8  9  1  0  0  0  0
  8 10  1  0  0  0  0
  9 19  1  0  0  0  0
 10 20  1  0  0  0  0
M  END
>  <Line_Number>
10


> <IC50>
11100

$$$$
