145980462.0
 OpenBabel09092522103D

 47 49  0  0  0  0  0  0  0  0999 V2000
    6.8035    0.5092    2.1372 C   0  0  0  0  0  0  0  0  0  0  0  0
    5.6093    0.5663    1.2228 C   0  0  0  0  0  0  0  0  0  0  0  0
    4.2737    0.8436    1.8523 C   0  0  0  0  0  0  0  0  0  0  0  0
    5.7573    0.3317   -0.0967 C   0  0  0  0  0  0  0  0  0  0  0  0
    4.6560    0.3308   -1.1204 C   0  0  0  0  0  0  0  0  0  0  0  0
    5.1213    0.7994   -2.4242 N   0  0  0  0  0  0  0  0  0  0  0  0
    5.1119    2.1068   -2.8770 C   0  0  0  0  0  0  0  0  0  0  0  0
    4.7005    3.1435   -2.1441 O   0  0  0  0  0  0  0  0  0  0  0  0
    5.5764    2.0757   -4.1800 C   0  0  0  0  0  0  0  0  0  0  0  0
    5.7002    3.1448   -5.0859 N   0  0  0  0  0  0  0  0  0  0  0  0
    5.9076    4.2436   -4.5332 N   0  0  0  0  0  0  0  0  0  0  0  0
    5.9322    5.2966   -5.4234 C   0  0  0  0  0  0  0  0  0  0  0  0
    5.7656    5.2350   -6.6389 O   0  0  0  0  0  0  0  0  0  0  0  0
    6.1947    6.6365   -4.8020 C   0  0  0  0  0  0  0  0  0  0  0  0
    6.1885    7.7836   -5.6093 C   0  0  0  0  0  0  0  0  0  0  0  0
    6.4703    9.0401   -5.0601 C   0  0  0  0  0  0  0  0  0  0  0  0
    6.7689    9.1708   -3.6958 C   0  0  0  0  0  0  0  0  0  0  0  0
    7.1259   10.5101   -3.0942 C   0  0  0  0  0  0  0  0  0  0  0  0
    7.1384   11.5298   -3.9969 F   0  0  0  0  0  0  0  0  0  0  0  0
    6.2624   10.8894   -2.1124 F   0  0  0  0  0  0  0  0  0  0  0  0
    8.3624   10.5051   -2.5218 F   0  0  0  0  0  0  0  0  0  0  0  0
    6.7493    8.0239   -2.8866 C   0  0  0  0  0  0  0  0  0  0  0  0
    6.4645    6.7678   -3.4332 C   0  0  0  0  0  0  0  0  0  0  0  0
    5.8740    0.7330   -4.5347 C   0  0  0  0  0  0  0  0  0  0  0  0
    6.3548    0.1032   -5.7025 C   0  0  0  0  0  0  0  0  0  0  0  0
    6.5436   -1.2834   -5.7181 C   0  0  0  0  0  0  0  0  0  0  0  0
    6.2637   -2.0440   -4.5887 C   0  0  0  0  0  0  0  0  0  0  0  0
    5.7868   -1.4460   -3.4199 C   0  0  0  0  0  0  0  0  0  0  0  0
    5.5932   -0.0530   -3.4135 C   0  0  0  0  0  0  0  0  0  0  0  0
    6.5301    0.7031    3.1793 H   0  0  0  0  0  0  0  0  0  0  0  0
    7.5470    1.2586    1.8482 H   0  0  0  0  0  0  0  0  0  0  0  0
    7.2669   -0.4833    2.1023 H   0  0  0  0  0  0  0  0  0  0  0  0
    4.3487    0.9669    2.9364 H   0  0  0  0  0  0  0  0  0  0  0  0
    3.5837    0.0125    1.6675 H   0  0  0  0  0  0  0  0  0  0  0  0
    3.8412    1.7638    1.4476 H   0  0  0  0  0  0  0  0  0  0  0  0
    6.7554    0.1045   -0.4753 H   0  0  0  0  0  0  0  0  0  0  0  0
    3.8075    0.9579   -0.8313 H   0  0  0  0  0  0  0  0  0  0  0  0
    4.2671   -0.6845   -1.2479 H   0  0  0  0  0  0  0  0  0  0  0  0
    4.4764    2.8622   -1.2435 H   0  0  0  0  0  0  0  0  0  0  0  0
    5.9701    7.7051   -6.6736 H   0  0  0  0  0  0  0  0  0  0  0  0
    6.4659    9.9156   -5.7089 H   0  0  0  0  0  0  0  0  0  0  0  0
    6.9684    8.1035   -1.8221 H   0  0  0  0  0  0  0  0  0  0  0  0
    6.4665    5.8993   -2.7769 H   0  0  0  0  0  0  0  0  0  0  0  0
    6.5785    0.6926   -6.5847 H   0  0  0  0  0  0  0  0  0  0  0  0
    6.9136   -1.7646   -6.6190 H   0  0  0  0  0  0  0  0  0  0  0  0
    6.4129   -3.1205   -4.6152 H   0  0  0  0  0  0  0  0  0  0  0  0
    5.5746   -2.0573   -2.5476 H   0  0  0  0  0  0  0  0  0  0  0  0
  1  2  1  0  0  0  0
  1 30  1  0  0  0  0
  1 31  1  0  0  0  0
  1 32  1  0  0  0  0
  2  3  1  0  0  0  0
  2  4  2  0  0  0  0
  3 33  1  0  0  0  0
  3 34  1  0  0  0  0
  3 35  1  0  0  0  0
  4  5  1  0  0  0  0
  4 36  1  0  0  0  0
  5  6  1  0  0  0  0
  5 37  1  0  0  0  0
  5 38  1  0  0  0  0
  6  7  1  0  0  0  0
  6 29  1  0  0  0  0
  7  8  1  0  0  0  0
  7  9  2  0  0  0  0
  8 39  1  0  0  0  0
  9 10  1  0  0  0  0
  9 24  1  0  0  0  0
 10 11  2  3  0  0  0
 11 12  1  0  0  0  0
 12 13  2  0  0  0  0
 12 14  1  0  0  0  0
 14 15  1  0  0  0  0
 14 23  2  0  0  0  0
 15 16  2  0  0  0  0
 15 40  1  0  0  0  0
 16 17  1  0  0  0  0
 16 41  1  0  0  0  0
 17 18  1  0  0  0  0
 17 22  2  0  0  0  0
 18 19  1  0  0  0  0
 18 20  1  0  0  0  0
 18 21  1  0  0  0  0
 22 23  1  0  0  0  0
 22 42  1  0  0  0  0
 23 43  1  0  0  0  0
 24 25  1  0  0  0  0
 24 29  2  0  0  0  0
 25 26  2  0  0  0  0
 25 44  1  0  0  0  0
 26 27  1  0  0  0  0
 26 45  1  0  0  0  0
 27 28  2  0  0  0  0
 27 46  1  0  0  0  0
 28 29  1  0  0  0  0
 28 47  1  0  0  0  0
M  END
>  <Line_Number>
112


> <IC50>
64000

$$$$
