145988267.0
 OpenBabel09092522103D

 44 46  0  0  0  0  0  0  0  0999 V2000
    6.7096    0.0913   -2.2902 C   0  0  0  0  0  0  0  0  0  0  0  0
    5.5253    0.3050   -1.3864 C   0  0  0  0  0  0  0  0  0  0  0  0
    4.1585    0.1778   -1.9977 C   0  0  0  0  0  0  0  0  0  0  0  0
    5.7156    0.5621   -0.0765 C   0  0  0  0  0  0  0  0  0  0  0  0
    4.6319    0.7594    0.9466 C   0  0  0  0  0  0  0  0  0  0  0  0
    5.0291    1.7043    1.9882 N   0  0  0  0  0  0  0  0  0  0  0  0
    4.8370    3.0750    1.9597 C   0  0  0  0  0  0  0  0  0  0  0  0
    4.3116    3.7276    0.9213 O   0  0  0  0  0  0  0  0  0  0  0  0
    5.2839    3.5577    3.1764 C   0  0  0  0  0  0  0  0  0  0  0  0
    5.2965    4.8840    3.6423 N   0  0  0  0  0  0  0  0  0  0  0  0
    5.4751    5.7128    2.7298 N   0  0  0  0  0  0  0  0  0  0  0  0
    5.5842    7.0117    3.1806 C   0  0  0  0  0  0  0  0  0  0  0  0
    5.5609    7.3912    4.3475 O   0  0  0  0  0  0  0  0  0  0  0  0
    5.7667    8.0220    2.0888 C   0  0  0  0  0  0  0  0  0  0  0  0
    5.9638    9.3718    2.4146 C   0  0  0  0  0  0  0  0  0  0  0  0
    6.1062   10.3254    1.4025 C   0  0  0  0  0  0  0  0  0  0  0  0
    6.0540    9.9380    0.0636 C   0  0  0  0  0  0  0  0  0  0  0  0
    5.8760    8.5963   -0.2690 C   0  0  0  0  0  0  0  0  0  0  0  0
    5.7358    7.6402    0.7383 C   0  0  0  0  0  0  0  0  0  0  0  0
    5.7683    2.4764    3.9585 C   0  0  0  0  0  0  0  0  0  0  0  0
    6.3315    2.3675    5.2458 C   0  0  0  0  0  0  0  0  0  0  0  0
    6.7443    1.1162    5.7165 C   0  0  0  0  0  0  0  0  0  0  0  0
    6.6063   -0.0179    4.9239 C   0  0  0  0  0  0  0  0  0  0  0  0
    6.0450    0.0625    3.6459 C   0  0  0  0  0  0  0  0  0  0  0  0
    5.6245    1.3220    3.1815 C   0  0  0  0  0  0  0  0  0  0  0  0
    6.4062   -0.1005   -3.3241 H   0  0  0  0  0  0  0  0  0  0  0  0
    7.2951   -0.7728   -1.9567 H   0  0  0  0  0  0  0  0  0  0  0  0
    7.3547    0.9758   -2.2960 H   0  0  0  0  0  0  0  0  0  0  0  0
    4.2064   -0.0429   -3.0681 H   0  0  0  0  0  0  0  0  0  0  0  0
    3.6003    1.1128   -1.8842 H   0  0  0  0  0  0  0  0  0  0  0  0
    3.5984   -0.6336   -1.5208 H   0  0  0  0  0  0  0  0  0  0  0  0
    6.7383    0.6207    0.2986 H   0  0  0  0  0  0  0  0  0  0  0  0
    4.3945   -0.1938    1.4301 H   0  0  0  0  0  0  0  0  0  0  0  0
    3.7006    1.1311    0.5082 H   0  0  0  0  0  0  0  0  0  0  0  0
    4.1597    3.1241    0.1771 H   0  0  0  0  0  0  0  0  0  0  0  0
    6.0044    9.6872    3.4557 H   0  0  0  0  0  0  0  0  0  0  0  0
    6.2515   11.3725    1.6586 H   0  0  0  0  0  0  0  0  0  0  0  0
    6.1499   10.6824   -0.7231 H   0  0  0  0  0  0  0  0  0  0  0  0
    5.8394    8.2920   -1.3121 H   0  0  0  0  0  0  0  0  0  0  0  0
    5.5955    6.5994    0.4529 H   0  0  0  0  0  0  0  0  0  0  0  0
    6.4483    3.2519    5.8661 H   0  0  0  0  0  0  0  0  0  0  0  0
    7.1811    1.0343    6.7090 H   0  0  0  0  0  0  0  0  0  0  0  0
    6.9395   -0.9823    5.3014 H   0  0  0  0  0  0  0  0  0  0  0  0
    5.9481   -0.8319    3.0395 H   0  0  0  0  0  0  0  0  0  0  0  0
  1  2  1  0  0  0  0
  1 26  1  0  0  0  0
  1 27  1  0  0  0  0
  1 28  1  0  0  0  0
  2  3  1  0  0  0  0
  2  4  2  0  0  0  0
  3 29  1  0  0  0  0
  3 30  1  0  0  0  0
  3 31  1  0  0  0  0
  4  5  1  0  0  0  0
  4 32  1  0  0  0  0
  5  6  1  0  0  0  0
  5 33  1  0  0  0  0
  5 34  1  0  0  0  0
  6  7  1  0  0  0  0
  6 25  1  0  0  0  0
  7  8  1  0  0  0  0
  7  9  2  0  0  0  0
  8 35  1  0  0  0  0
  9 10  1  0  0  0  0
  9 20  1  0  0  0  0
 10 11  2  3  0  0  0
 11 12  1  0  0  0  0
 12 13  2  0  0  0  0
 12 14  1  0  0  0  0
 14 15  1  0  0  0  0
 14 19  2  0  0  0  0
 15 16  2  0  0  0  0
 15 36  1  0  0  0  0
 16 17  1  0  0  0  0
 16 37  1  0  0  0  0
 17 18  2  0  0  0  0
 17 38  1  0  0  0  0
 18 19  1  0  0  0  0
 18 39  1  0  0  0  0
 19 40  1  0  0  0  0
 20 21  1  0  0  0  0
 20 25  2  0  0  0  0
 21 22  2  0  0  0  0
 21 41  1  0  0  0  0
 22 23  1  0  0  0  0
 22 42  1  0  0  0  0
 23 24  2  0  0  0  0
 23 43  1  0  0  0  0
 24 25  1  0  0  0  0
 24 44  1  0  0  0  0
M  END
>  <Line_Number>
118


> <IC50>
150000

$$$$
