145985856.0
 OpenBabel09092522103D

 48 50  0  0  0  0  0  0  0  0999 V2000
   12.3372   -4.2778    2.7087 C   0  0  0  0  0  0  0  0  0  0  0  0
   11.5817   -3.1301    2.3324 O   0  0  0  0  0  0  0  0  0  0  0  0
   10.3987   -2.9326    2.9869 C   0  0  0  0  0  0  0  0  0  0  0  0
    9.6815   -1.8061    2.5642 C   0  0  0  0  0  0  0  0  0  0  0  0
    8.4574   -1.4763    3.1585 C   0  0  0  0  0  0  0  0  0  0  0  0
    7.9331   -2.2688    4.1875 C   0  0  0  0  0  0  0  0  0  0  0  0
    6.6415   -1.8883    4.8354 C   0  0  0  0  0  0  0  0  0  0  0  0
    6.0629   -0.8711    4.4631 O   0  0  0  0  0  0  0  0  0  0  0  0
    6.2069   -2.7701    5.8009 N   0  0  0  0  0  0  0  0  0  0  0  0
    5.4005   -2.2612    6.6052 N   0  0  0  0  0  0  0  0  0  0  0  0
    4.8781   -3.2013    7.5109 C   0  0  0  0  0  0  0  0  0  0  0  0
    4.5602   -2.9042    8.8180 C   0  0  0  0  0  0  0  0  0  0  0  0
    4.6949   -1.7799    9.5173 O   0  0  0  0  0  0  0  0  0  0  0  0
    4.0363   -4.0475    9.3836 N   0  0  0  0  0  0  0  0  0  0  0  0
    3.6427   -4.1857   10.7906 C   0  0  0  0  0  0  0  0  0  0  0  0
    2.1850   -3.8963   11.0313 C   0  0  0  0  0  0  0  0  0  0  0  0
    1.3699   -4.4690   11.9443 C   0  0  0  0  0  0  0  0  0  0  0  0
    1.7744   -5.5377   12.9236 C   0  0  0  0  0  0  0  0  0  0  0  0
   -0.0684   -4.0335   12.0797 C   0  0  0  0  0  0  0  0  0  0  0  0
    4.0321   -5.0775    8.4530 C   0  0  0  0  0  0  0  0  0  0  0  0
    3.6105   -6.4133    8.5578 C   0  0  0  0  0  0  0  0  0  0  0  0
    3.7460   -7.2420    7.4394 C   0  0  0  0  0  0  0  0  0  0  0  0
    4.2715   -6.7570    6.2476 C   0  0  0  0  0  0  0  0  0  0  0  0
    4.6723   -5.4233    6.1442 C   0  0  0  0  0  0  0  0  0  0  0  0
    4.5623   -4.5659    7.2618 C   0  0  0  0  0  0  0  0  0  0  0  0
    8.6435   -3.4029    4.6030 C   0  0  0  0  0  0  0  0  0  0  0  0
    9.8599   -3.7203    4.0077 C   0  0  0  0  0  0  0  0  0  0  0  0
   10.4936   -4.8117    4.4626 F   0  0  0  0  0  0  0  0  0  0  0  0
   13.2395   -4.3047    2.0907 H   0  0  0  0  0  0  0  0  0  0  0  0
   11.7763   -5.1976    2.5141 H   0  0  0  0  0  0  0  0  0  0  0  0
   12.6558   -4.2143    3.7543 H   0  0  0  0  0  0  0  0  0  0  0  0
   10.0821   -1.1800    1.7712 H   0  0  0  0  0  0  0  0  0  0  0  0
    7.9197   -0.5923    2.8142 H   0  0  0  0  0  0  0  0  0  0  0  0
    5.0956   -1.1274    8.9105 H   0  0  0  0  0  0  0  0  0  0  0  0
    4.2592   -3.4894   11.3700 H   0  0  0  0  0  0  0  0  0  0  0  0
    3.9221   -5.1985   11.0940 H   0  0  0  0  0  0  0  0  0  0  0  0
    1.7728   -3.1073   10.3985 H   0  0  0  0  0  0  0  0  0  0  0  0
    2.8225   -5.8332   12.8363 H   0  0  0  0  0  0  0  0  0  0  0  0
    1.1635   -6.4348   12.7774 H   0  0  0  0  0  0  0  0  0  0  0  0
    1.6213   -5.1848   13.9494 H   0  0  0  0  0  0  0  0  0  0  0  0
   -0.3353   -3.2479   11.3660 H   0  0  0  0  0  0  0  0  0  0  0  0
   -0.2516   -3.6427   13.0865 H   0  0  0  0  0  0  0  0  0  0  0  0
   -0.7404   -4.8811   11.9109 H   0  0  0  0  0  0  0  0  0  0  0  0
    3.1874   -6.8047    9.4780 H   0  0  0  0  0  0  0  0  0  0  0  0
    3.4315   -8.2807    7.5025 H   0  0  0  0  0  0  0  0  0  0  0  0
    4.3692   -7.4146    5.3876 H   0  0  0  0  0  0  0  0  0  0  0  0
    5.0731   -5.0574    5.2037 H   0  0  0  0  0  0  0  0  0  0  0  0
    8.2784   -4.0512    5.3942 H   0  0  0  0  0  0  0  0  0  0  0  0
  1  2  1  0  0  0  0
  1 29  1  0  0  0  0
  1 30  1  0  0  0  0
  1 31  1  0  0  0  0
  2  3  1  0  0  0  0
  3  4  1  0  0  0  0
  3 27  2  0  0  0  0
  4  5  2  0  0  0  0
  4 32  1  0  0  0  0
  5  6  1  0  0  0  0
  5 33  1  0  0  0  0
  6  7  1  0  0  0  0
  6 26  2  0  0  0  0
  7  8  2  0  0  0  0
  7  9  1  0  0  0  0
  9 10  2  3  0  0  0
 10 11  1  0  0  0  0
 11 12  2  0  0  0  0
 11 25  1  0  0  0  0
 12 13  1  0  0  0  0
 12 14  1  0  0  0  0
 13 34  1  0  0  0  0
 14 15  1  0  0  0  0
 14 20  1  0  0  0  0
 15 16  1  0  0  0  0
 15 35  1  0  0  0  0
 15 36  1  0  0  0  0
 16 17  2  0  0  0  0
 16 37  1  0  0  0  0
 17 18  1  0  0  0  0
 17 19  1  0  0  0  0
 18 38  1  0  0  0  0
 18 39  1  0  0  0  0
 18 40  1  0  0  0  0
 19 41  1  0  0  0  0
 19 42  1  0  0  0  0
 19 43  1  0  0  0  0
 20 21  1  0  0  0  0
 20 25  2  0  0  0  0
 21 22  2  0  0  0  0
 21 44  1  0  0  0  0
 22 23  1  0  0  0  0
 22 45  1  0  0  0  0
 23 24  2  0  0  0  0
 23 46  1  0  0  0  0
 24 25  1  0  0  0  0
 24 47  1  0  0  0  0
 26 27  1  0  0  0  0
 26 48  1  0  0  0  0
 27 28  1  0  0  0  0
M  END
>  <Line_Number>
119


> <IC50>
3880

$$$$
