168282573.0
 OpenBabel09092522103D

 44 46  0  0  0  0  0  0  0  0999 V2000
    1.0305   -1.9596   -2.4473 O   0  0  0  0  0  0  0  0  0  0  0  0
    1.4159   -1.5824   -1.3420 C   0  0  0  0  0  0  0  0  0  0  0  0
    1.3721   -2.5402   -0.1486 C   0  0  0  0  0  0  0  0  0  0  0  0
    1.9820   -2.0559    1.0488 O   0  0  0  0  0  0  0  0  0  0  0  0
    2.2914   -3.0475    1.9528 C   0  0  0  0  0  0  0  0  0  0  0  0
    3.3174   -2.7783    2.8615 C   0  0  0  0  0  0  0  0  0  0  0  0
    3.7336   -3.7619    3.7746 C   0  0  0  0  0  0  0  0  0  0  0  0
    3.1302   -5.0279    3.7911 C   0  0  0  0  0  0  0  0  0  0  0  0
    3.6071   -6.1273    4.7217 C   0  0  0  0  0  0  0  0  0  0  0  0
    2.9015   -6.2101    6.0842 C   0  0  0  0  0  0  0  0  0  0  0  0
    1.4248   -6.4517    5.9336 C   0  0  0  0  0  0  0  0  0  0  0  0
    0.9654   -7.3815    5.2615 O   0  0  0  0  0  0  0  0  0  0  0  0
    0.5849   -5.5755    6.5585 N   0  0  0  0  0  0  0  0  0  0  0  0
    0.9578   -4.4128    7.1522 C   0  0  0  0  0  0  0  0  0  0  0  0
    0.1547   -3.5157    7.3723 O   0  0  0  0  0  0  0  0  0  0  0  0
    2.2761   -4.2797    7.4544 N   0  0  0  0  0  0  0  0  0  0  0  0
    3.2856   -5.0349    6.9410 C   0  0  0  0  0  0  0  0  0  0  0  0
    4.4579   -4.7419    7.1726 O   0  0  0  0  0  0  0  0  0  0  0  0
    2.0824   -5.2739    2.8965 C   0  0  0  0  0  0  0  0  0  0  0  0
    1.6568   -4.2881    2.0022 C   0  0  0  0  0  0  0  0  0  0  0  0
    1.9155   -0.3323   -1.0483 N   0  0  0  0  0  0  0  0  0  0  0  0
    1.9914    0.7883   -1.9143 C   0  0  0  0  0  0  0  0  0  0  0  0
    1.2699    0.8590   -3.1135 C   0  0  0  0  0  0  0  0  0  0  0  0
    1.3645    1.9805   -3.9434 C   0  0  0  0  0  0  0  0  0  0  0  0
    2.1652    3.0569   -3.5724 C   0  0  0  0  0  0  0  0  0  0  0  0
    2.8725    3.0167   -2.3687 C   0  0  0  0  0  0  0  0  0  0  0  0
    3.8086    4.4104   -1.9530 Cl  0  0  0  0  0  0  0  0  0  0  0  0
    2.7940    1.8858   -1.5399 C   0  0  0  0  0  0  0  0  0  0  0  0
    3.6971    1.8048   -0.0546 Cl  0  0  0  0  0  0  0  0  0  0  0  0
    1.8852   -3.4485   -0.4897 H   0  0  0  0  0  0  0  0  0  0  0  0
    0.3103   -2.7514    0.0375 H   0  0  0  0  0  0  0  0  0  0  0  0
    3.8216   -1.8143    2.8497 H   0  0  0  0  0  0  0  0  0  0  0  0
    4.5567   -3.5339    4.4513 H   0  0  0  0  0  0  0  0  0  0  0  0
    4.6881   -6.0076    4.8719 H   0  0  0  0  0  0  0  0  0  0  0  0
    3.4960   -7.0890    4.2033 H   0  0  0  0  0  0  0  0  0  0  0  0
    3.2829   -7.0908    6.6205 H   0  0  0  0  0  0  0  0  0  0  0  0
   -0.3997   -5.6828    6.3641 H   0  0  0  0  0  0  0  0  0  0  0  0
    2.5470   -3.4305    7.9306 H   0  0  0  0  0  0  0  0  0  0  0  0
    1.5929   -6.2462    2.8664 H   0  0  0  0  0  0  0  0  0  0  0  0
    0.8289   -4.5312    1.3433 H   0  0  0  0  0  0  0  0  0  0  0  0
    2.3790   -0.2409   -0.1456 H   0  0  0  0  0  0  0  0  0  0  0  0
    0.5983    0.0617   -3.4215 H   0  0  0  0  0  0  0  0  0  0  0  0
    0.8017    2.0146   -4.8741 H   0  0  0  0  0  0  0  0  0  0  0  0
    2.2257    3.9285   -4.2206 H   0  0  0  0  0  0  0  0  0  0  0  0
  1  2  2  0  0  0  0
  2  3  1  0  0  0  0
  2 21  1  0  0  0  0
  3  4  1  0  0  0  0
  3 30  1  0  0  0  0
  3 31  1  0  0  0  0
  4  5  1  0  0  0  0
  5  6  1  0  0  0  0
  5 20  2  0  0  0  0
  6  7  2  0  0  0  0
  6 32  1  0  0  0  0
  7  8  1  0  0  0  0
  7 33  1  0  0  0  0
  8  9  1  0  0  0  0
  8 19  2  0  0  0  0
  9 10  1  0  0  0  0
  9 34  1  0  0  0  0
  9 35  1  0  0  0  0
 10 11  1  0  0  0  0
 10 17  1  0  0  0  0
 10 36  1  0  0  0  0
 11 12  2  0  0  0  0
 11 13  1  0  0  0  0
 13 14  1  0  0  0  0
 13 37  1  0  0  0  0
 14 15  2  0  0  0  0
 14 16  1  0  0  0  0
 16 17  1  0  0  0  0
 16 38  1  0  0  0  0
 17 18  2  0  0  0  0
 19 20  1  0  0  0  0
 19 39  1  0  0  0  0
 20 40  1  0  0  0  0
 21 22  1  0  0  0  0
 21 41  1  0  0  0  0
 22 23  1  0  0  0  0
 22 28  2  0  0  0  0
 23 24  2  0  0  0  0
 23 42  1  0  0  0  0
 24 25  1  0  0  0  0
 24 43  1  0  0  0  0
 25 26  2  0  0  0  0
 25 44  1  0  0  0  0
 26 27  1  0  0  0  0
 26 28  1  0  0  0  0
 28 29  1  0  0  0  0
M  END
>  <Line_Number>
120


> <IC50>
690

$$$$
