168288909.0
 OpenBabel09092522103D

 37 38  0  0  0  0  0  0  0  0999 V2000
    2.1556    0.8223   -2.0616 O   0  0  0  0  0  0  0  0  0  0  0  0
    2.7066    0.4441   -1.0276 C   0  0  0  0  0  0  0  0  0  0  0  0
    2.8510    1.3129    0.2216 C   0  0  0  0  0  0  0  0  0  0  0  0
    1.8802    2.4404    0.2173 N   0  0  0  0  0  0  0  0  0  0  0  0
    0.4944    2.0998    0.4036 C   0  0  0  0  0  0  0  0  0  0  0  0
   -0.4162    2.5312   -0.5655 C   0  0  0  0  0  0  0  0  0  0  0  0
   -1.7652    2.1821   -0.4790 C   0  0  0  0  0  0  0  0  0  0  0  0
   -2.2112    1.3878    0.5755 C   0  0  0  0  0  0  0  0  0  0  0  0
   -1.2998    0.9709    1.5562 C   0  0  0  0  0  0  0  0  0  0  0  0
   -1.7542    0.0732    2.6251 N   0  3  0  0  0  0  0  0  0  0  0  0
   -2.9167   -0.3541    2.5643 O   0  0  0  0  0  0  0  0  0  0  0  0
   -0.9414   -0.2276    3.5096 O   0  5  0  0  0  0  0  0  0  0  0  0
    0.0496    1.3522    1.4964 C   0  0  0  0  0  0  0  0  0  0  0  0
    2.4124    3.8885    0.9531 S   0  0  0  0  0  0  0  0  0  0  0  0
    1.2786    4.7770    1.0963 O   0  0  0  0  0  0  0  0  0  0  0  0
    3.2332    3.4928    2.0799 O   0  0  0  0  0  0  0  0  0  0  0  0
    3.4911    4.6399   -0.2470 C   0  0  0  0  0  0  0  0  0  0  0  0
    3.6899    4.0512   -1.5066 C   0  0  0  0  0  0  0  0  0  0  0  0
    4.5813    4.6145   -2.4215 C   0  0  0  0  0  0  0  0  0  0  0  0
    5.2492    5.7920   -2.1064 C   0  0  0  0  0  0  0  0  0  0  0  0
    5.0170    6.4122   -0.8778 C   0  0  0  0  0  0  0  0  0  0  0  0
    4.1435    5.8406    0.0582 C   0  0  0  0  0  0  0  0  0  0  0  0
    3.9235    6.7022    1.5376 Cl  0  0  0  0  0  0  0  0  0  0  0  0
    3.3199   -0.7797   -0.9988 N   0  0  0  0  0  0  0  0  0  0  0  0
    3.6650   -1.3226    0.2507 O   0  0  0  0  0  0  0  0  0  0  0  0
    3.8822    1.6849    0.2143 H   0  0  0  0  0  0  0  0  0  0  0  0
    2.7208    0.7119    1.1278 H   0  0  0  0  0  0  0  0  0  0  0  0
   -0.0705    3.1247   -1.4088 H   0  0  0  0  0  0  0  0  0  0  0  0
   -2.4605    2.5142   -1.2461 H   0  0  0  0  0  0  0  0  0  0  0  0
   -3.2599    1.0992    0.6158 H   0  0  0  0  0  0  0  0  0  0  0  0
    0.7450    1.0479    2.2740 H   0  0  0  0  0  0  0  0  0  0  0  0
    3.1543    3.1592   -1.8102 H   0  0  0  0  0  0  0  0  0  0  0  0
    4.7445    4.1354   -3.3850 H   0  0  0  0  0  0  0  0  0  0  0  0
    5.9385    6.2366   -2.8209 H   0  0  0  0  0  0  0  0  0  0  0  0
    5.5230    7.3496   -0.6559 H   0  0  0  0  0  0  0  0  0  0  0  0
    3.0326   -1.4363   -1.7231 H   0  0  0  0  0  0  0  0  0  0  0  0
    4.6379   -1.2307    0.2611 H   0  0  0  0  0  0  0  0  0  0  0  0
  1  2  2  0  0  0  0
  2  3  1  0  0  0  0
  2 24  1  0  0  0  0
  3  4  1  0  0  0  0
  3 26  1  0  0  0  0
  3 27  1  0  0  0  0
  4  5  1  0  0  0  0
  4 14  1  0  0  0  0
  5  6  1  0  0  0  0
  5 13  2  0  0  0  0
  6  7  2  0  0  0  0
  6 28  1  0  0  0  0
  7  8  1  0  0  0  0
  7 29  1  0  0  0  0
  8  9  2  0  0  0  0
  8 30  1  0  0  0  0
  9 10  1  0  0  0  0
  9 13  1  0  0  0  0
 10 11  2  0  0  0  0
 10 12  1  0  0  0  0
 13 31  1  0  0  0  0
 14 15  2  0  0  0  0
 14 16  2  0  0  0  0
 14 17  1  0  0  0  0
 17 18  1  0  0  0  0
 17 22  2  0  0  0  0
 18 19  2  0  0  0  0
 18 32  1  0  0  0  0
 19 20  1  0  0  0  0
 19 33  1  0  0  0  0
 20 21  2  0  0  0  0
 20 34  1  0  0  0  0
 21 22  1  0  0  0  0
 21 35  1  0  0  0  0
 22 23  1  0  0  0  0
 24 25  1  0  0  0  0
 24 36  1  0  0  0  0
 25 37  1  0  0  0  0
M  CHG  2  10   1  12  -1
M  END
>  <Line_Number>
121


> <IC50>
22000

$$$$
