168297531.0
 OpenBabel09092522103D

 37 38  0  0  0  0  0  0  0  0999 V2000
    2.9717   -1.2996    0.2254 O   0  0  0  0  0  0  0  0  0  0  0  0
    2.6235   -0.7963   -0.8402 C   0  0  0  0  0  0  0  0  0  0  0  0
    2.8970    0.6566   -1.1891 C   0  0  0  0  0  0  0  0  0  0  0  0
    1.9014    1.2277   -2.1611 N   0  0  0  0  0  0  0  0  0  0  0  0
    0.5568    1.4206   -1.6520 C   0  0  0  0  0  0  0  0  0  0  0  0
   -0.5062    0.9715   -2.4444 C   0  0  0  0  0  0  0  0  0  0  0  0
   -1.8270    1.1158   -2.0153 C   0  0  0  0  0  0  0  0  0  0  0  0
   -2.0988    1.7160   -0.7866 C   0  0  0  0  0  0  0  0  0  0  0  0
   -1.0337    2.1974   -0.0083 C   0  0  0  0  0  0  0  0  0  0  0  0
   -1.3154    2.8000    1.2967 N   0  3  0  0  0  0  0  0  0  0  0  0
   -2.4880    2.7895    1.6995 O   0  0  0  0  0  0  0  0  0  0  0  0
   -0.3598    3.2722    1.9342 O   0  5  0  0  0  0  0  0  0  0  0  0
    0.2917    2.0818   -0.4504 C   0  0  0  0  0  0  0  0  0  0  0  0
    2.5046    2.6137   -2.9974 S   0  0  0  0  0  0  0  0  0  0  0  0
    1.4379    3.1899   -3.7908 O   0  0  0  0  0  0  0  0  0  0  0  0
    3.2479    3.4059   -2.0393 O   0  0  0  0  0  0  0  0  0  0  0  0
    3.6587    1.9102   -4.1627 C   0  0  0  0  0  0  0  0  0  0  0  0
    3.1675    1.0876   -5.1836 C   0  0  0  0  0  0  0  0  0  0  0  0
    4.0306    0.6426   -6.1881 C   0  0  0  0  0  0  0  0  0  0  0  0
    5.3734    1.0205   -6.1724 C   0  0  0  0  0  0  0  0  0  0  0  0
    5.8635    1.8284   -5.1435 C   0  0  0  0  0  0  0  0  0  0  0  0
    5.0082    2.2759   -4.1329 C   0  0  0  0  0  0  0  0  0  0  0  0
    2.0625   -1.5210   -1.8668 N   0  0  0  0  0  0  0  0  0  0  0  0
    1.6813   -2.8468   -1.5752 O   0  0  0  0  0  0  0  0  0  0  0  0
    3.9033    0.6764   -1.6190 H   0  0  0  0  0  0  0  0  0  0  0  0
    2.9128    1.2396   -0.2618 H   0  0  0  0  0  0  0  0  0  0  0  0
   -0.3168    0.5049   -3.4085 H   0  0  0  0  0  0  0  0  0  0  0  0
   -2.6455    0.7558   -2.6358 H   0  0  0  0  0  0  0  0  0  0  0  0
   -3.1304    1.8074   -0.4558 H   0  0  0  0  0  0  0  0  0  0  0  0
    1.1020    2.4984    0.1423 H   0  0  0  0  0  0  0  0  0  0  0  0
    2.1130    0.8259   -5.2274 H   0  0  0  0  0  0  0  0  0  0  0  0
    3.6517    0.0268   -7.0009 H   0  0  0  0  0  0  0  0  0  0  0  0
    6.0361    0.7016   -6.9743 H   0  0  0  0  0  0  0  0  0  0  0  0
    6.9089    2.1313   -5.1481 H   0  0  0  0  0  0  0  0  0  0  0  0
    5.3958    2.9349   -3.3592 H   0  0  0  0  0  0  0  0  0  0  0  0
    1.5353   -1.0479   -2.5933 H   0  0  0  0  0  0  0  0  0  0  0  0
    2.4940   -3.2166   -1.1747 H   0  0  0  0  0  0  0  0  0  0  0  0
  1  2  2  0  0  0  0
  2  3  1  0  0  0  0
  2 23  1  0  0  0  0
  3  4  1  0  0  0  0
  3 25  1  0  0  0  0
  3 26  1  0  0  0  0
  4  5  1  0  0  0  0
  4 14  1  0  0  0  0
  5  6  1  0  0  0  0
  5 13  2  0  0  0  0
  6  7  2  0  0  0  0
  6 27  1  0  0  0  0
  7  8  1  0  0  0  0
  7 28  1  0  0  0  0
  8  9  2  0  0  0  0
  8 29  1  0  0  0  0
  9 10  1  0  0  0  0
  9 13  1  0  0  0  0
 10 11  2  0  0  0  0
 10 12  1  0  0  0  0
 13 30  1  0  0  0  0
 14 15  2  0  0  0  0
 14 16  2  0  0  0  0
 14 17  1  0  0  0  0
 17 18  1  0  0  0  0
 17 22  2  0  0  0  0
 18 19  2  0  0  0  0
 18 31  1  0  0  0  0
 19 20  1  0  0  0  0
 19 32  1  0  0  0  0
 20 21  2  0  0  0  0
 20 33  1  0  0  0  0
 21 22  1  0  0  0  0
 21 34  1  0  0  0  0
 22 35  1  0  0  0  0
 23 24  1  0  0  0  0
 23 36  1  0  0  0  0
 24 37  1  0  0  0  0
M  CHG  2  10   1  12  -1
M  END
>  <Line_Number>
128


> <IC50>
2410

$$$$
