50908655.0
 OpenBabel09092522103D

 31 32  0  0  0  0  0  0  0  0999 V2000
    2.3103   -0.1470    0.3037 O   0  0  0  0  0  0  0  0  0  0  0  0
    0.9524   -0.1102    0.1841 C   0  0  0  0  0  0  0  0  0  0  0  0
    0.3329   -0.0939   -1.0608 C   0  0  0  0  0  0  0  0  0  0  0  0
   -1.0623   -0.0452   -1.1346 C   0  0  0  0  0  0  0  0  0  0  0  0
   -1.8395   -0.0050    0.0334 C   0  0  0  0  0  0  0  0  0  0  0  0
   -3.3477    0.0670   -0.0457 C   0  0  0  0  0  0  0  0  0  0  0  0
   -4.0021   -1.3178   -0.0385 C   0  0  0  0  0  0  0  0  0  0  0  0
   -5.5100   -1.2394   -0.1198 C   0  0  0  0  0  0  0  0  0  0  0  0
   -6.2909   -1.1979    1.0492 C   0  0  0  0  0  0  0  0  0  0  0  0
   -7.6877   -1.1310    0.9786 C   0  0  0  0  0  0  0  0  0  0  0  0
   -8.3020   -1.1014   -0.2665 C   0  0  0  0  0  0  0  0  0  0  0  0
   -9.6613   -1.0412   -0.4033 O   0  0  0  0  0  0  0  0  0  0  0  0
   -7.5361   -1.1334   -1.4275 C   0  0  0  0  0  0  0  0  0  0  0  0
   -8.1495   -1.1048   -2.6488 O   0  0  0  0  0  0  0  0  0  0  0  0
   -6.1500   -1.1981   -1.3674 C   0  0  0  0  0  0  0  0  0  0  0  0
   -1.1936   -0.0365    1.2776 C   0  0  0  0  0  0  0  0  0  0  0  0
    0.1998   -0.0864    1.3514 C   0  0  0  0  0  0  0  0  0  0  0  0
    2.7002   -0.1299   -0.5851 H   0  0  0  0  0  0  0  0  0  0  0  0
    0.9131   -0.1164   -1.9784 H   0  0  0  0  0  0  0  0  0  0  0  0
   -1.5407   -0.0295   -2.1116 H   0  0  0  0  0  0  0  0  0  0  0  0
   -3.6345    0.6205   -0.9492 H   0  0  0  0  0  0  0  0  0  0  0  0
   -3.7206    0.6675    0.7948 H   0  0  0  0  0  0  0  0  0  0  0  0
   -3.7180   -1.8703    0.8665 H   0  0  0  0  0  0  0  0  0  0  0  0
   -3.6294   -1.9194   -0.8780 H   0  0  0  0  0  0  0  0  0  0  0  0
   -5.8124   -1.2241    2.0264 H   0  0  0  0  0  0  0  0  0  0  0  0
   -8.2676   -1.1086    1.8954 H   0  0  0  0  0  0  0  0  0  0  0  0
  -10.0548   -1.0201    0.4860 H   0  0  0  0  0  0  0  0  0  0  0  0
   -9.1043   -1.0731   -2.4397 H   0  0  0  0  0  0  0  0  0  0  0  0
   -5.5773   -1.2234   -2.2901 H   0  0  0  0  0  0  0  0  0  0  0  0
   -1.7709   -0.0126    2.1986 H   0  0  0  0  0  0  0  0  0  0  0  0
    0.6971   -0.1005    2.3175 H   0  0  0  0  0  0  0  0  0  0  0  0
  1  2  1  0  0  0  0
  1 18  1  0  0  0  0
  2  3  1  0  0  0  0
  2 17  2  0  0  0  0
  3  4  2  0  0  0  0
  3 19  1  0  0  0  0
  4  5  1  0  0  0  0
  4 20  1  0  0  0  0
  5  6  1  0  0  0  0
  5 16  2  0  0  0  0
  6  7  1  0  0  0  0
  6 21  1  0  0  0  0
  6 22  1  0  0  0  0
  7  8  1  0  0  0  0
  7 23  1  0  0  0  0
  7 24  1  0  0  0  0
  8  9  1  0  0  0  0
  8 15  2  0  0  0  0
  9 10  2  0  0  0  0
  9 25  1  0  0  0  0
 10 11  1  0  0  0  0
 10 26  1  0  0  0  0
 11 12  1  0  0  0  0
 11 13  2  0  0  0  0
 12 27  1  0  0  0  0
 13 14  1  0  0  0  0
 13 15  1  0  0  0  0
 14 28  1  0  0  0  0
 15 29  1  0  0  0  0
 16 17  1  0  0  0  0
 16 30  1  0  0  0  0
 17 31  1  0  0  0  0
M  END
>  <Line_Number>
12


> <IC50>
2850

$$$$
