168289003.0
 OpenBabel09092522103D

 46 47  0  0  0  0  0  0  0  0999 V2000
    1.6760    2.3410    0.1418 C   0  0  0  0  0  0  0  0  0  0  0  0
    0.7008    1.2102    0.2888 C   0  0  0  0  0  0  0  0  0  0  0  0
    1.1418   -0.1060    0.4405 C   0  0  0  0  0  0  0  0  0  0  0  0
    0.2431   -1.1921    0.5516 C   0  0  0  0  0  0  0  0  0  0  0  0
    0.8576   -2.5265    0.8579 C   0  0  0  0  0  0  0  0  0  0  0  0
   -1.1444   -0.9406    0.4387 C   0  0  0  0  0  0  0  0  0  0  0  0
   -2.3985   -2.2297    0.3215 S   0  0  0  0  0  0  0  0  0  0  0  0
   -3.0492   -2.2567    1.6145 O   0  0  0  0  0  0  0  0  0  0  0  0
   -3.1561   -1.9498   -0.8892 O   0  0  0  0  0  0  0  0  0  0  0  0
   -1.6613   -3.7608    0.0457 N   0  0  0  0  0  0  0  0  0  0  0  0
   -1.2787   -4.0382   -1.3777 C   0  0  0  0  0  0  0  0  0  0  0  0
   -0.5706   -5.3824   -1.5702 C   0  0  0  0  0  0  0  0  0  0  0  0
    0.2536   -5.8538   -0.7868 O   0  0  0  0  0  0  0  0  0  0  0  0
   -0.9100   -6.0436   -2.7294 N   0  0  0  0  0  0  0  0  0  0  0  0
   -0.3008   -7.2968   -2.9592 O   0  0  0  0  0  0  0  0  0  0  0  0
   -2.3374   -4.8520    0.7140 C   0  0  0  0  0  0  0  0  0  0  0  0
   -3.4607   -5.4802    0.1614 C   0  0  0  0  0  0  0  0  0  0  0  0
   -4.0305   -6.5849    0.7993 C   0  0  0  0  0  0  0  0  0  0  0  0
   -3.5030   -7.0437    2.0072 C   0  0  0  0  0  0  0  0  0  0  0  0
   -2.4173   -6.3712    2.5847 C   0  0  0  0  0  0  0  0  0  0  0  0
   -1.8640   -6.8394    3.8594 N   0  3  0  0  0  0  0  0  0  0  0  0
   -2.3174   -7.8921    4.3311 O   0  0  0  0  0  0  0  0  0  0  0  0
   -0.9730   -6.1594    4.3884 O   0  5  0  0  0  0  0  0  0  0  0  0
   -1.8391   -5.2688    1.9480 C   0  0  0  0  0  0  0  0  0  0  0  0
   -1.5995    0.4067    0.4426 C   0  0  0  0  0  0  0  0  0  0  0  0
   -3.0324    0.8365    0.6614 C   0  0  0  0  0  0  0  0  0  0  0  0
   -0.6662    1.4593    0.3603 C   0  0  0  0  0  0  0  0  0  0  0  0
    2.5947    1.9998   -0.3472 H   0  0  0  0  0  0  0  0  0  0  0  0
    1.9291    2.7639    1.1183 H   0  0  0  0  0  0  0  0  0  0  0  0
    1.2548    3.1316   -0.4893 H   0  0  0  0  0  0  0  0  0  0  0  0
    2.2156   -0.2886    0.4921 H   0  0  0  0  0  0  0  0  0  0  0  0
    1.9037   -2.4195    1.1685 H   0  0  0  0  0  0  0  0  0  0  0  0
    0.8639   -3.1723   -0.0174 H   0  0  0  0  0  0  0  0  0  0  0  0
    0.3445   -2.9961    1.7002 H   0  0  0  0  0  0  0  0  0  0  0  0
   -0.5911   -3.2688   -1.7409 H   0  0  0  0  0  0  0  0  0  0  0  0
   -2.1708   -4.0223   -2.0145 H   0  0  0  0  0  0  0  0  0  0  0  0
   -1.6466   -5.7732   -3.3717 H   0  0  0  0  0  0  0  0  0  0  0  0
    0.3567   -7.3580   -2.2324 H   0  0  0  0  0  0  0  0  0  0  0  0
   -3.8968   -5.1308   -0.7710 H   0  0  0  0  0  0  0  0  0  0  0  0
   -4.8822   -7.0936    0.3519 H   0  0  0  0  0  0  0  0  0  0  0  0
   -3.9461   -7.9153    2.4849 H   0  0  0  0  0  0  0  0  0  0  0  0
   -0.9937   -4.7497    2.3895 H   0  0  0  0  0  0  0  0  0  0  0  0
   -3.7696    0.0415    0.5665 H   0  0  0  0  0  0  0  0  0  0  0  0
   -3.3072    1.6160   -0.0572 H   0  0  0  0  0  0  0  0  0  0  0  0
   -3.1298    1.2508    1.6729 H   0  0  0  0  0  0  0  0  0  0  0  0
   -1.0180    2.4922    0.3583 H   0  0  0  0  0  0  0  0  0  0  0  0
  1  2  1  0  0  0  0
  1 28  1  0  0  0  0
  1 29  1  0  0  0  0
  1 30  1  0  0  0  0
  2  3  1  0  0  0  0
  2 27  2  0  0  0  0
  3  4  2  0  0  0  0
  3 31  1  0  0  0  0
  4  5  1  0  0  0  0
  4  6  1  0  0  0  0
  5 32  1  0  0  0  0
  5 33  1  0  0  0  0
  5 34  1  0  0  0  0
  6  7  1  0  0  0  0
  6 25  2  0  0  0  0
  7  8  2  0  0  0  0
  7  9  2  0  0  0  0
  7 10  1  0  0  0  0
 10 11  1  0  0  0  0
 10 16  1  0  0  0  0
 11 12  1  0  0  0  0
 11 35  1  0  0  0  0
 11 36  1  0  0  0  0
 12 13  2  0  0  0  0
 12 14  1  0  0  0  0
 14 15  1  0  0  0  0
 14 37  1  0  0  0  0
 15 38  1  0  0  0  0
 16 17  1  0  0  0  0
 16 24  2  0  0  0  0
 17 18  2  0  0  0  0
 17 39  1  0  0  0  0
 18 19  1  0  0  0  0
 18 40  1  0  0  0  0
 19 20  2  0  0  0  0
 19 41  1  0  0  0  0
 20 21  1  0  0  0  0
 20 24  1  0  0  0  0
 21 22  2  0  0  0  0
 21 23  1  0  0  0  0
 24 42  1  0  0  0  0
 25 26  1  0  0  0  0
 25 27  1  0  0  0  0
 26 43  1  0  0  0  0
 26 44  1  0  0  0  0
 26 45  1  0  0  0  0
 27 46  1  0  0  0  0
M  CHG  2  21   1  23  -1
M  END
>  <Line_Number>
131


> <IC50>
96400

$$$$
