CHEMBL462481
 OpenBabel09092522103D

 19 18  0  0  0  0  0  0  0  0999 V2000
    3.4483   -0.0308    0.9506 N   0  0  0  0  0  0  0  0  0  0  0  0
    2.5045   -0.0131   -0.1817 C   0  0  0  0  0  0  0  0  0  0  0  0
    2.9464    0.9849   -1.2486 C   0  0  0  0  0  0  0  0  0  0  0  0
    2.1510    1.5668   -1.9838 O   0  0  0  0  0  0  0  0  0  0  0  0
    4.3055    1.1586   -1.3479 N   0  0  0  0  0  0  0  0  0  0  0  0
    4.8833    2.0537   -2.3214 C   0  0  0  0  0  0  0  0  0  0  0  0
    6.4023    2.0760   -2.2425 C   0  0  0  0  0  0  0  0  0  0  0  0
    7.0622    1.4180   -1.4384 O   0  0  0  0  0  0  0  0  0  0  0  0
    6.9897    2.9132   -3.1587 N   0  0  0  0  0  0  0  0  0  0  0  0
    8.4000    2.9788   -3.1543 O   0  0  0  0  0  0  0  0  0  0  0  0
    3.0229   -0.5614    1.7115 H   0  0  0  0  0  0  0  0  0  0  0  0
    3.5445    0.9224    1.3058 H   0  0  0  0  0  0  0  0  0  0  0  0
    1.5110    0.2757    0.1738 H   0  0  0  0  0  0  0  0  0  0  0  0
    2.4519   -1.0055   -0.6386 H   0  0  0  0  0  0  0  0  0  0  0  0
    4.9028    0.6451   -0.7004 H   0  0  0  0  0  0  0  0  0  0  0  0
    4.4947    3.0616   -2.1399 H   0  0  0  0  0  0  0  0  0  0  0  0
    4.5747    1.7249   -3.3194 H   0  0  0  0  0  0  0  0  0  0  0  0
    6.4996    3.4592   -3.8598 H   0  0  0  0  0  0  0  0  0  0  0  0
    8.6379    2.3541   -2.4341 H   0  0  0  0  0  0  0  0  0  0  0  0
  1  2  1  0  0  0  0
  1 11  1  0  0  0  0
  1 12  1  0  0  0  0
  2  3  1  0  0  0  0
  2 13  1  0  0  0  0
  2 14  1  0  0  0  0
  3  4  2  0  0  0  0
  3  5  1  0  0  0  0
  5  6  1  0  0  0  0
  5 15  1  0  0  0  0
  6  7  1  0  0  0  0
  6 16  1  0  0  0  0
  6 17  1  0  0  0  0
  7  8  2  0  0  0  0
  7  9  1  0  0  0  0
  9 10  1  0  0  0  0
  9 18  1  0  0  0  0
 10 19  1  0  0  0  0
M  END
>  <Line_Number>
134


> <IC50>
790

$$$$
