CHEMBL4126448
 OpenBabel09092522103D

 54 57  0  0  0  0  0  0  0  0999 V2000
   -0.5867  -12.6978   -3.7058 C   0  0  0  0  0  0  0  0  0  0  0  0
   -1.9809  -12.1392   -3.6152 C   0  0  0  0  0  0  0  0  0  0  0  0
   -3.0310  -12.8108   -4.2531 C   0  0  0  0  0  0  0  0  0  0  0  0
   -4.3221  -12.3094   -4.1725 C   0  0  0  0  0  0  0  0  0  0  0  0
   -4.5778  -11.1387   -3.4583 C   0  0  0  0  0  0  0  0  0  0  0  0
   -3.5531  -10.4417   -2.8081 C   0  0  0  0  0  0  0  0  0  0  0  0
   -3.7697   -9.2414   -2.0700 N   0  0  0  0  0  0  0  0  0  0  0  0
   -4.9995   -8.6272   -1.8691 C   0  0  0  0  0  0  0  0  0  0  0  0
   -6.0791   -9.0404   -2.2878 O   0  0  0  0  0  0  0  0  0  0  0  0
   -4.9404   -7.3366   -1.0595 C   0  0  0  0  0  0  0  0  0  0  0  0
   -6.3603   -6.7658   -0.9106 C   0  0  0  0  0  0  0  0  0  0  0  0
   -6.3909   -5.1862   -0.0060 S   0  0  0  0  0  0  0  0  0  0  0  0
   -8.1113   -4.8614    0.0242 C   0  0  0  0  0  0  0  0  0  0  0  0
   -9.0499   -5.7857   -0.0284 N   0  0  0  0  0  0  0  0  0  0  0  0
  -10.2645   -5.1296    0.0069 N   0  0  0  0  0  0  0  0  0  0  0  0
   -9.9867   -3.8433    0.0791 C   0  0  0  0  0  0  0  0  0  0  0  0
  -10.9144   -2.6849    0.0493 C   0  0  0  0  0  0  0  0  0  0  0  0
  -11.3798   -2.2377    1.4015 C   0  0  0  0  0  0  0  0  0  0  0  0
  -12.0764   -2.9698    2.3487 C   0  0  0  0  0  0  0  0  0  0  0  0
  -12.4680   -1.9717    3.6948 S   0  0  0  0  0  0  0  0  0  0  0  0
  -11.6694   -0.6675    2.9376 C   0  0  0  0  0  0  0  0  0  0  0  0
  -11.6592    0.4997    3.6580 N   0  0  0  0  0  0  0  0  0  0  0  0
  -10.9210    1.5876    3.2378 C   0  0  0  0  0  0  0  0  0  0  0  0
  -10.2000    1.6167    2.2449 O   0  0  0  0  0  0  0  0  0  0  0  0
  -10.9743    2.8259    4.0842 C   0  0  0  0  0  0  0  0  0  0  0  0
  -11.8625    3.0174    5.1518 C   0  0  0  0  0  0  0  0  0  0  0  0
  -11.8452    4.2179    5.8742 C   0  0  0  0  0  0  0  0  0  0  0  0
  -10.9498    5.2337    5.5386 C   0  0  0  0  0  0  0  0  0  0  0  0
  -10.0672    5.0568    4.4791 C   0  0  0  0  0  0  0  0  0  0  0  0
  -10.0818    3.8625    3.7573 C   0  0  0  0  0  0  0  0  0  0  0  0
  -11.1621   -0.9153    1.7590 N   0  0  0  0  0  0  0  0  0  0  0  0
   -8.6372   -3.5953    0.0972 O   0  0  0  0  0  0  0  0  0  0  0  0
   -2.2453  -10.9577   -2.8963 C   0  0  0  0  0  0  0  0  0  0  0  0
   -0.5614  -13.6045   -4.3188 H   0  0  0  0  0  0  0  0  0  0  0  0
   -0.2190  -12.9612   -2.7099 H   0  0  0  0  0  0  0  0  0  0  0  0
    0.0857  -11.9689   -4.1670 H   0  0  0  0  0  0  0  0  0  0  0  0
   -2.8497  -13.7248   -4.8147 H   0  0  0  0  0  0  0  0  0  0  0  0
   -5.1437  -12.8255   -4.6660 H   0  0  0  0  0  0  0  0  0  0  0  0
   -5.6087  -10.8013   -3.4375 H   0  0  0  0  0  0  0  0  0  0  0  0
   -2.9550   -8.8104   -1.6492 H   0  0  0  0  0  0  0  0  0  0  0  0
   -4.2893   -6.6276   -1.5823 H   0  0  0  0  0  0  0  0  0  0  0  0
   -4.5109   -7.5606   -0.0763 H   0  0  0  0  0  0  0  0  0  0  0  0
   -6.9947   -7.4897   -0.3858 H   0  0  0  0  0  0  0  0  0  0  0  0
   -6.7992   -6.5942   -1.9024 H   0  0  0  0  0  0  0  0  0  0  0  0
  -11.7956   -2.9470   -0.5501 H   0  0  0  0  0  0  0  0  0  0  0  0
  -10.4329   -1.8456   -0.4683 H   0  0  0  0  0  0  0  0  0  0  0  0
  -12.3785   -4.0078    2.3122 H   0  0  0  0  0  0  0  0  0  0  0  0
  -12.1537    0.4837    4.5328 H   0  0  0  0  0  0  0  0  0  0  0  0
  -12.5898    2.2683    5.4418 H   0  0  0  0  0  0  0  0  0  0  0  0
  -12.5369    4.3669    6.7003 H   0  0  0  0  0  0  0  0  0  0  0  0
  -10.9428    6.1652    6.0995 H   0  0  0  0  0  0  0  0  0  0  0  0
   -9.3682    5.8440    4.2072 H   0  0  0  0  0  0  0  0  0  0  0  0
   -9.3873    3.7441    2.9261 H   0  0  0  0  0  0  0  0  0  0  0  0
   -1.4218  -10.4481   -2.4057 H   0  0  0  0  0  0  0  0  0  0  0  0
  1  2  1  0  0  0  0
  1 34  1  0  0  0  0
  1 35  1  0  0  0  0
  1 36  1  0  0  0  0
  2  3  1  0  0  0  0
  2 33  2  0  0  0  0
  3  4  2  0  0  0  0
  3 37  1  0  0  0  0
  4  5  1  0  0  0  0
  4 38  1  0  0  0  0
  5  6  2  0  0  0  0
  5 39  1  0  0  0  0
  6  7  1  0  0  0  0
  6 33  1  0  0  0  0
  7  8  1  0  0  0  0
  7 40  1  0  0  0  0
  8  9  2  0  0  0  0
  8 10  1  0  0  0  0
 10 11  1  0  0  0  0
 10 41  1  0  0  0  0
 10 42  1  0  0  0  0
 11 12  1  0  0  0  0
 11 43  1  0  0  0  0
 11 44  1  0  0  0  0
 12 13  1  0  0  0  0
 13 14  2  0  0  0  0
 13 32  1  0  0  0  0
 14 15  1  0  0  0  0
 15 16  2  0  0  0  0
 16 17  1  0  0  0  0
 16 32  1  0  0  0  0
 17 18  1  0  0  0  0
 17 45  1  0  0  0  0
 17 46  1  0  0  0  0
 18 19  2  0  0  0  0
 18 31  1  0  0  0  0
 19 20  1  0  0  0  0
 19 47  1  0  0  0  0
 20 21  1  0  0  0  0
 21 22  1  0  0  0  0
 21 31  2  0  0  0  0
 22 23  1  0  0  0  0
 22 48  1  0  0  0  0
 23 24  2  0  0  0  0
 23 25  1  0  0  0  0
 25 26  1  0  0  0  0
 25 30  2  0  0  0  0
 26 27  2  0  0  0  0
 26 49  1  0  0  0  0
 27 28  1  0  0  0  0
 27 50  1  0  0  0  0
 28 29  2  0  0  0  0
 28 51  1  0  0  0  0
 29 30  1  0  0  0  0
 29 52  1  0  0  0  0
 30 53  1  0  0  0  0
 33 54  1  0  0  0  0
M  END
>  <Line_Number>
136


> <IC50>
12230

$$$$
