CHEMBL4126727
 OpenBabel09092522103D

 57 60  0  0  0  0  0  0  0  0999 V2000
    7.3895   -0.8098   -1.0215 C   0  0  0  0  0  0  0  0  0  0  0  0
    5.9667   -0.7142   -0.4922 C   0  0  0  0  0  0  0  0  0  0  0  0
    5.8782   -1.0410    0.9768 C   0  0  0  0  0  0  0  0  0  0  0  0
    6.1192   -0.0434    1.9212 C   0  0  0  0  0  0  0  0  0  0  0  0
    6.0303   -0.3184    3.2890 C   0  0  0  0  0  0  0  0  0  0  0  0
    5.7017   -1.5940    3.7545 C   0  0  0  0  0  0  0  0  0  0  0  0
    5.5836   -1.9125    5.1349 N   0  0  0  0  0  0  0  0  0  0  0  0
    5.7751   -1.0305    6.1900 C   0  0  0  0  0  0  0  0  0  0  0  0
    6.0889    0.1533    6.0805 O   0  0  0  0  0  0  0  0  0  0  0  0
    5.5688   -1.6450    7.5685 C   0  0  0  0  0  0  0  0  0  0  0  0
    5.7992   -0.5568    8.6252 C   0  0  0  0  0  0  0  0  0  0  0  0
    5.6366   -1.1848   10.3234 S   0  0  0  0  0  0  0  0  0  0  0  0
    5.9817    0.2726   11.2191 C   0  0  0  0  0  0  0  0  0  0  0  0
    5.7877    1.5000   10.7771 N   0  0  0  0  0  0  0  0  0  0  0  0
    6.1744    2.3586   11.7875 N   0  0  0  0  0  0  0  0  0  0  0  0
    6.5863    1.5962   12.7793 C   0  0  0  0  0  0  0  0  0  0  0  0
    7.0656    1.9865   14.1272 C   0  0  0  0  0  0  0  0  0  0  0  0
    8.5431    2.2256   14.1922 C   0  0  0  0  0  0  0  0  0  0  0  0
    9.2757    3.2159   13.5589 C   0  0  0  0  0  0  0  0  0  0  0  0
   10.9239    3.1362   14.0520 S   0  0  0  0  0  0  0  0  0  0  0  0
   10.5529    1.7729   15.0056 C   0  0  0  0  0  0  0  0  0  0  0  0
   11.6148    1.2071   15.6635 N   0  0  0  0  0  0  0  0  0  0  0  0
   11.4858   -0.0268   16.2600 C   0  0  0  0  0  0  0  0  0  0  0  0
   10.4943   -0.7557   16.2157 O   0  0  0  0  0  0  0  0  0  0  0  0
   12.6773   -0.5537   16.9819 C   0  0  0  0  0  0  0  0  0  0  0  0
   13.5932    0.2720   17.6437 C   0  0  0  0  0  0  0  0  0  0  0  0
   14.6312   -0.3010   18.3878 C   0  0  0  0  0  0  0  0  0  0  0  0
   14.7579   -1.6891   18.4721 C   0  0  0  0  0  0  0  0  0  0  0  0
   13.8560   -2.5138   17.8048 C   0  0  0  0  0  0  0  0  0  0  0  0
   12.8201   -1.9482   17.0635 C   0  0  0  0  0  0  0  0  0  0  0  0
    9.2968    1.4087   15.0190 N   0  0  0  0  0  0  0  0  0  0  0  0
    6.4801    0.2587   12.4972 O   0  0  0  0  0  0  0  0  0  0  0  0
    5.4767   -2.5997    2.8093 C   0  0  0  0  0  0  0  0  0  0  0  0
    5.5680   -2.3278    1.4317 C   0  0  0  0  0  0  0  0  0  0  0  0
    7.4132   -0.5597   -2.0873 H   0  0  0  0  0  0  0  0  0  0  0  0
    7.7911   -1.8210   -0.8997 H   0  0  0  0  0  0  0  0  0  0  0  0
    8.0579   -0.1166   -0.4990 H   0  0  0  0  0  0  0  0  0  0  0  0
    5.3096   -1.3798   -1.0637 H   0  0  0  0  0  0  0  0  0  0  0  0
    5.5852    0.3016   -0.6590 H   0  0  0  0  0  0  0  0  0  0  0  0
    6.3756    0.9660    1.6068 H   0  0  0  0  0  0  0  0  0  0  0  0
    6.2241    0.5115    3.9587 H   0  0  0  0  0  0  0  0  0  0  0  0
    5.3324   -2.8701    5.3566 H   0  0  0  0  0  0  0  0  0  0  0  0
    6.2791   -2.4691    7.6929 H   0  0  0  0  0  0  0  0  0  0  0  0
    4.5468   -2.0370    7.6298 H   0  0  0  0  0  0  0  0  0  0  0  0
    5.0809    0.2576    8.4774 H   0  0  0  0  0  0  0  0  0  0  0  0
    6.8065   -0.1390    8.5140 H   0  0  0  0  0  0  0  0  0  0  0  0
    6.7890    1.2096   14.8507 H   0  0  0  0  0  0  0  0  0  0  0  0
    6.5478    2.8995   14.4456 H   0  0  0  0  0  0  0  0  0  0  0  0
    8.9311    3.9711   12.8655 H   0  0  0  0  0  0  0  0  0  0  0  0
   12.5059    1.6698   15.5868 H   0  0  0  0  0  0  0  0  0  0  0  0
   13.4913    1.3527   17.6370 H   0  0  0  0  0  0  0  0  0  0  0  0
   15.3314    0.3336   18.9265 H   0  0  0  0  0  0  0  0  0  0  0  0
   15.5511   -2.1307   19.0710 H   0  0  0  0  0  0  0  0  0  0  0  0
   13.9430   -3.5953   17.8751 H   0  0  0  0  0  0  0  0  0  0  0  0
   12.1050   -2.5992   16.5620 H   0  0  0  0  0  0  0  0  0  0  0  0
    5.2239   -3.6117    3.1168 H   0  0  0  0  0  0  0  0  0  0  0  0
    5.3881   -3.1280    0.7162 H   0  0  0  0  0  0  0  0  0  0  0  0
  1  2  1  0  0  0  0
  1 35  1  0  0  0  0
  1 36  1  0  0  0  0
  1 37  1  0  0  0  0
  2  3  1  0  0  0  0
  2 38  1  0  0  0  0
  2 39  1  0  0  0  0
  3  4  1  0  0  0  0
  3 34  2  0  0  0  0
  4  5  2  0  0  0  0
  4 40  1  0  0  0  0
  5  6  1  0  0  0  0
  5 41  1  0  0  0  0
  6  7  1  0  0  0  0
  6 33  2  0  0  0  0
  7  8  1  0  0  0  0
  7 42  1  0  0  0  0
  8  9  2  0  0  0  0
  8 10  1  0  0  0  0
 10 11  1  0  0  0  0
 10 43  1  0  0  0  0
 10 44  1  0  0  0  0
 11 12  1  0  0  0  0
 11 45  1  0  0  0  0
 11 46  1  0  0  0  0
 12 13  1  0  0  0  0
 13 14  2  0  0  0  0
 13 32  1  0  0  0  0
 14 15  1  0  0  0  0
 15 16  2  0  0  0  0
 16 17  1  0  0  0  0
 16 32  1  0  0  0  0
 17 18  1  0  0  0  0
 17 47  1  0  0  0  0
 17 48  1  0  0  0  0
 18 19  2  0  0  0  0
 18 31  1  0  0  0  0
 19 20  1  0  0  0  0
 19 49  1  0  0  0  0
 20 21  1  0  0  0  0
 21 22  1  0  0  0  0
 21 31  2  0  0  0  0
 22 23  1  0  0  0  0
 22 50  1  0  0  0  0
 23 24  2  0  0  0  0
 23 25  1  0  0  0  0
 25 26  1  0  0  0  0
 25 30  2  0  0  0  0
 26 27  2  0  0  0  0
 26 51  1  0  0  0  0
 27 28  1  0  0  0  0
 27 52  1  0  0  0  0
 28 29  2  0  0  0  0
 28 53  1  0  0  0  0
 29 30  1  0  0  0  0
 29 54  1  0  0  0  0
 30 55  1  0  0  0  0
 33 34  1  0  0  0  0
 33 56  1  0  0  0  0
 34 57  1  0  0  0  0
M  END
>  <Line_Number>
138


> <IC50>
43180

$$$$
