82061.0
 OpenBabel09092522103D

 38 38  0  0  0  0  0  0  0  0999 V2000
    0.8450   -0.0012   -0.0154 C   0  0  0  0  0  0  0  0  0  0  0  0
    2.3646    0.0098    0.0004 C   0  0  0  0  0  0  0  0  0  0  0  0
    2.9206   -1.3879    0.2500 C   0  0  0  0  0  0  0  0  0  0  0  0
    4.4493   -1.3865    0.2743 C   0  0  0  0  0  0  0  0  0  0  0  0
    4.9666   -2.8027    0.5029 C   0  0  0  0  0  0  0  0  0  0  0  0
    6.4941   -2.8704    0.4933 C   0  0  0  0  0  0  0  0  0  0  0  0
    7.0125   -4.2916    0.7349 C   0  0  0  0  0  0  0  0  0  0  0  0
    6.5826   -5.2664   -0.3636 C   0  0  0  0  0  0  0  0  0  0  0  0
    7.0541   -6.6714   -0.1005 C   0  0  0  0  0  0  0  0  0  0  0  0
    8.2665   -7.1302   -0.6369 C   0  0  0  0  0  0  0  0  0  0  0  0
    8.6882   -8.4454   -0.4157 C   0  0  0  0  0  0  0  0  0  0  0  0
    7.8944   -9.2916    0.3483 C   0  0  0  0  0  0  0  0  0  0  0  0
    8.2469  -10.5912    0.5868 O   0  0  0  0  0  0  0  0  0  0  0  0
    6.6996   -8.8350    0.8951 C   0  0  0  0  0  0  0  0  0  0  0  0
    5.9255   -9.6731    1.6467 O   0  0  0  0  0  0  0  0  0  0  0  0
    6.2729   -7.5333    0.6827 C   0  0  0  0  0  0  0  0  0  0  0  0
    0.4608    1.0078   -0.1916 H   0  0  0  0  0  0  0  0  0  0  0  0
    0.4464   -0.3565    0.9404 H   0  0  0  0  0  0  0  0  0  0  0  0
    0.4663   -0.6541   -0.8084 H   0  0  0  0  0  0  0  0  0  0  0  0
    2.7147    0.6943    0.7812 H   0  0  0  0  0  0  0  0  0  0  0  0
    2.7339    0.3911   -0.9586 H   0  0  0  0  0  0  0  0  0  0  0  0
    2.5660   -2.0682   -0.5348 H   0  0  0  0  0  0  0  0  0  0  0  0
    2.5394   -1.7736    1.2037 H   0  0  0  0  0  0  0  0  0  0  0  0
    4.8130   -0.7222    1.0665 H   0  0  0  0  0  0  0  0  0  0  0  0
    4.8336   -1.0029   -0.6787 H   0  0  0  0  0  0  0  0  0  0  0  0
    4.5555   -3.4407   -0.2860 H   0  0  0  0  0  0  0  0  0  0  0  0
    4.5899   -3.1864    1.4586 H   0  0  0  0  0  0  0  0  0  0  0  0
    6.8920   -2.2127    1.2765 H   0  0  0  0  0  0  0  0  0  0  0  0
    6.8794   -2.4967   -0.4628 H   0  0  0  0  0  0  0  0  0  0  0  0
    6.6636   -4.6437    1.7141 H   0  0  0  0  0  0  0  0  0  0  0  0
    8.1085   -4.2614    0.7899 H   0  0  0  0  0  0  0  0  0  0  0  0
    6.9574   -4.9242   -1.3375 H   0  0  0  0  0  0  0  0  0  0  0  0
    5.4924   -5.3004   -0.4587 H   0  0  0  0  0  0  0  0  0  0  0  0
    8.8834   -6.4650   -1.2372 H   0  0  0  0  0  0  0  0  0  0  0  0
    9.6250   -8.7809   -0.8462 H   0  0  0  0  0  0  0  0  0  0  0  0
    9.0808  -10.7643    0.1175 H   0  0  0  0  0  0  0  0  0  0  0  0
    6.4188  -10.5163    1.6523 H   0  0  0  0  0  0  0  0  0  0  0  0
    5.3336   -7.2005    1.1150 H   0  0  0  0  0  0  0  0  0  0  0  0
  1  2  1  0  0  0  0
  1 17  1  0  0  0  0
  1 18  1  0  0  0  0
  1 19  1  0  0  0  0
  2  3  1  0  0  0  0
  2 20  1  0  0  0  0
  2 21  1  0  0  0  0
  3  4  1  0  0  0  0
  3 22  1  0  0  0  0
  3 23  1  0  0  0  0
  4  5  1  0  0  0  0
  4 24  1  0  0  0  0
  4 25  1  0  0  0  0
  5  6  1  0  0  0  0
  5 26  1  0  0  0  0
  5 27  1  0  0  0  0
  6  7  1  0  0  0  0
  6 28  1  0  0  0  0
  6 29  1  0  0  0  0
  7  8  1  0  0  0  0
  7 30  1  0  0  0  0
  7 31  1  0  0  0  0
  8  9  1  0  0  0  0
  8 32  1  0  0  0  0
  8 33  1  0  0  0  0
  9 10  1  0  0  0  0
  9 16  2  0  0  0  0
 10 11  2  0  0  0  0
 10 34  1  0  0  0  0
 11 12  1  0  0  0  0
 11 35  1  0  0  0  0
 12 13  1  0  0  0  0
 12 14  2  0  0  0  0
 13 36  1  0  0  0  0
 14 15  1  0  0  0  0
 14 16  1  0  0  0  0
 15 37  1  0  0  0  0
 16 38  1  0  0  0  0
M  END
>  <Line_Number>
13


> <IC50>
58000

$$$$
