CHEMBL4129997
 OpenBabel09092522103D

 57 60  0  0  0  0  0  0  0  0999 V2000
    4.7187  -10.2253   -5.4338 C   0  0  0  0  0  0  0  0  0  0  0  0
    5.4404   -9.7250   -4.1885 C   0  0  0  0  0  0  0  0  0  0  0  0
    6.7049   -8.9950   -4.5813 C   0  0  0  0  0  0  0  0  0  0  0  0
    7.8774   -9.7841   -4.6744 C   0  0  0  0  0  0  0  0  0  0  0  0
    9.0554   -9.2757   -5.2094 C   0  0  0  0  0  0  0  0  0  0  0  0
    9.0873   -7.9627   -5.6501 C   0  0  0  0  0  0  0  0  0  0  0  0
    7.9506   -7.1513   -5.5289 C   0  0  0  0  0  0  0  0  0  0  0  0
    6.7415   -7.6399   -5.0014 C   0  0  0  0  0  0  0  0  0  0  0  0
    5.5731   -6.8111   -4.8863 N   0  0  0  0  0  0  0  0  0  0  0  0
    5.4096   -5.5795   -5.5038 C   0  0  0  0  0  0  0  0  0  0  0  0
    6.2186   -5.0786   -6.2895 O   0  0  0  0  0  0  0  0  0  0  0  0
    4.1168   -4.8417   -5.1608 C   0  0  0  0  0  0  0  0  0  0  0  0
    4.0293   -3.5504   -5.9916 C   0  0  0  0  0  0  0  0  0  0  0  0
    2.5280   -2.5747   -5.6374 S   0  0  0  0  0  0  0  0  0  0  0  0
    2.6742   -1.3010   -6.8284 C   0  0  0  0  0  0  0  0  0  0  0  0
    3.4017   -1.3782   -7.9241 N   0  0  0  0  0  0  0  0  0  0  0  0
    3.2367   -0.1874   -8.6027 N   0  0  0  0  0  0  0  0  0  0  0  0
    2.4158    0.5432   -7.8763 C   0  0  0  0  0  0  0  0  0  0  0  0
    1.9307    1.9285   -8.1151 C   0  0  0  0  0  0  0  0  0  0  0  0
    0.6068    1.9838   -8.8157 C   0  0  0  0  0  0  0  0  0  0  0  0
    0.2673    1.4585  -10.0504 C   0  0  0  0  0  0  0  0  0  0  0  0
   -1.3936    1.7728  -10.3879 S   0  0  0  0  0  0  0  0  0  0  0  0
   -1.4957    2.6626   -8.9389 C   0  0  0  0  0  0  0  0  0  0  0  0
   -2.7073    3.2550   -8.6896 N   0  0  0  0  0  0  0  0  0  0  0  0
   -2.8184    4.2149   -7.7045 C   0  0  0  0  0  0  0  0  0  0  0  0
   -1.8899    4.7057   -7.0672 O   0  0  0  0  0  0  0  0  0  0  0  0
   -4.1831    4.7381   -7.4275 C   0  0  0  0  0  0  0  0  0  0  0  0
   -5.3386    3.9617   -7.5624 C   0  0  0  0  0  0  0  0  0  0  0  0
   -6.5779    4.4889   -7.1745 C   0  0  0  0  0  0  0  0  0  0  0  0
   -6.6637    5.7823   -6.6543 C   0  0  0  0  0  0  0  0  0  0  0  0
   -5.5172    6.5624   -6.5302 C   0  0  0  0  0  0  0  0  0  0  0  0
   -4.2825    6.0423   -6.9151 C   0  0  0  0  0  0  0  0  0  0  0  0
   -0.4194    2.6855   -8.2032 N   0  0  0  0  0  0  0  0  0  0  0  0
    2.0153   -0.0984   -6.7300 O   0  0  0  0  0  0  0  0  0  0  0  0
    3.7610  -10.6815   -5.1695 H   0  0  0  0  0  0  0  0  0  0  0  0
    5.3188  -10.9818   -5.9550 H   0  0  0  0  0  0  0  0  0  0  0  0
    4.5289   -9.4121   -6.1426 H   0  0  0  0  0  0  0  0  0  0  0  0
    5.6853  -10.5838   -3.5495 H   0  0  0  0  0  0  0  0  0  0  0  0
    4.7857   -9.0902   -3.5821 H   0  0  0  0  0  0  0  0  0  0  0  0
    7.8593  -10.8294   -4.3667 H   0  0  0  0  0  0  0  0  0  0  0  0
    9.9360   -9.9058   -5.3018 H   0  0  0  0  0  0  0  0  0  0  0  0
    9.9934   -7.5568   -6.0959 H   0  0  0  0  0  0  0  0  0  0  0  0
    8.0720   -6.1255   -5.8623 H   0  0  0  0  0  0  0  0  0  0  0  0
    4.7919   -7.1801   -4.3647 H   0  0  0  0  0  0  0  0  0  0  0  0
    4.1280   -4.6149   -4.0890 H   0  0  0  0  0  0  0  0  0  0  0  0
    3.2696   -5.5017   -5.3792 H   0  0  0  0  0  0  0  0  0  0  0  0
    4.0460   -3.8040   -7.0576 H   0  0  0  0  0  0  0  0  0  0  0  0
    4.8986   -2.9141   -5.7862 H   0  0  0  0  0  0  0  0  0  0  0  0
    2.6701    2.4762   -8.7137 H   0  0  0  0  0  0  0  0  0  0  0  0
    1.8605    2.4564   -7.1560 H   0  0  0  0  0  0  0  0  0  0  0  0
    0.8880    0.9076  -10.7450 H   0  0  0  0  0  0  0  0  0  0  0  0
   -3.4668    3.0516   -9.3223 H   0  0  0  0  0  0  0  0  0  0  0  0
   -5.2972    2.9375   -7.9181 H   0  0  0  0  0  0  0  0  0  0  0  0
   -7.4773    3.8830   -7.2546 H   0  0  0  0  0  0  0  0  0  0  0  0
   -7.6233    6.1789   -6.3306 H   0  0  0  0  0  0  0  0  0  0  0  0
   -5.5757    7.5666   -6.1174 H   0  0  0  0  0  0  0  0  0  0  0  0
   -3.3869    6.6496   -6.7947 H   0  0  0  0  0  0  0  0  0  0  0  0
  1  2  1  0  0  0  0
  1 35  1  0  0  0  0
  1 36  1  0  0  0  0
  1 37  1  0  0  0  0
  2  3  1  0  0  0  0
  2 38  1  0  0  0  0
  2 39  1  0  0  0  0
  3  4  1  0  0  0  0
  3  8  2  0  0  0  0
  4  5  2  0  0  0  0
  4 40  1  0  0  0  0
  5  6  1  0  0  0  0
  5 41  1  0  0  0  0
  6  7  2  0  0  0  0
  6 42  1  0  0  0  0
  7  8  1  0  0  0  0
  7 43  1  0  0  0  0
  8  9  1  0  0  0  0
  9 10  1  0  0  0  0
  9 44  1  0  0  0  0
 10 11  2  0  0  0  0
 10 12  1  0  0  0  0
 12 13  1  0  0  0  0
 12 45  1  0  0  0  0
 12 46  1  0  0  0  0
 13 14  1  0  0  0  0
 13 47  1  0  0  0  0
 13 48  1  0  0  0  0
 14 15  1  0  0  0  0
 15 16  2  0  0  0  0
 15 34  1  0  0  0  0
 16 17  1  0  0  0  0
 17 18  2  0  0  0  0
 18 19  1  0  0  0  0
 18 34  1  0  0  0  0
 19 20  1  0  0  0  0
 19 49  1  0  0  0  0
 19 50  1  0  0  0  0
 20 21  2  0  0  0  0
 20 33  1  0  0  0  0
 21 22  1  0  0  0  0
 21 51  1  0  0  0  0
 22 23  1  0  0  0  0
 23 24  1  0  0  0  0
 23 33  2  0  0  0  0
 24 25  1  0  0  0  0
 24 52  1  0  0  0  0
 25 26  2  0  0  0  0
 25 27  1  0  0  0  0
 27 28  1  0  0  0  0
 27 32  2  0  0  0  0
 28 29  2  0  0  0  0
 28 53  1  0  0  0  0
 29 30  1  0  0  0  0
 29 54  1  0  0  0  0
 30 31  2  0  0  0  0
 30 55  1  0  0  0  0
 31 32  1  0  0  0  0
 31 56  1  0  0  0  0
 32 57  1  0  0  0  0
M  END
>  <Line_Number>
144


> <IC50>
2580

$$$$
