CHEMBL4128510
 OpenBabel09092522103D

 57 60  0  0  0  0  0  0  0  0999 V2000
   -9.9292  -11.2882   -4.8247 C   0  0  0  0  0  0  0  0  0  0  0  0
   -9.4306  -10.0438   -4.1419 C   0  0  0  0  0  0  0  0  0  0  0  0
  -10.2863   -8.9464   -4.0326 C   0  0  0  0  0  0  0  0  0  0  0  0
   -9.8739   -7.7748   -3.3972 C   0  0  0  0  0  0  0  0  0  0  0  0
   -8.5991   -7.6596   -2.8408 C   0  0  0  0  0  0  0  0  0  0  0  0
   -8.1518   -6.4887   -2.1731 N   0  0  0  0  0  0  0  0  0  0  0  0
   -8.9011   -5.3325   -1.9852 C   0  0  0  0  0  0  0  0  0  0  0  0
  -10.0502   -5.1661   -2.3828 O   0  0  0  0  0  0  0  0  0  0  0  0
   -8.1877   -4.2193   -1.2211 C   0  0  0  0  0  0  0  0  0  0  0  0
   -9.1373   -3.0166   -1.0781 C   0  0  0  0  0  0  0  0  0  0  0  0
   -8.3777   -1.5851   -0.2408 S   0  0  0  0  0  0  0  0  0  0  0  0
   -9.7360   -0.4823   -0.2124 C   0  0  0  0  0  0  0  0  0  0  0  0
  -11.0010   -0.8511   -0.1963 N   0  0  0  0  0  0  0  0  0  0  0  0
  -11.7582    0.3009   -0.1856 N   0  0  0  0  0  0  0  0  0  0  0  0
  -10.9048    1.3036   -0.1944 C   0  0  0  0  0  0  0  0  0  0  0  0
  -11.1803    2.7613   -0.2482 C   0  0  0  0  0  0  0  0  0  0  0  0
  -11.2969    3.3891    1.1057 C   0  0  0  0  0  0  0  0  0  0  0  0
  -12.1891    3.0831    2.1204 C   0  0  0  0  0  0  0  0  0  0  0  0
  -11.8766    4.0727    3.4954 S   0  0  0  0  0  0  0  0  0  0  0  0
  -10.6710    4.8876    2.6079 C   0  0  0  0  0  0  0  0  0  0  0  0
  -10.0487    5.9195    3.2593 N   0  0  0  0  0  0  0  0  0  0  0  0
   -9.2671    6.8110    2.5548 C   0  0  0  0  0  0  0  0  0  0  0  0
   -9.1424    6.8604    1.3351 O   0  0  0  0  0  0  0  0  0  0  0  0
   -8.5551    7.8467    3.3537 C   0  0  0  0  0  0  0  0  0  0  0  0
   -8.0867    7.6147    4.6522 C   0  0  0  0  0  0  0  0  0  0  0  0
   -7.3384    8.6005    5.3049 C   0  0  0  0  0  0  0  0  0  0  0  0
   -7.0577    9.8115    4.6685 C   0  0  0  0  0  0  0  0  0  0  0  0
   -7.5291   10.0489    3.3801 C   0  0  0  0  0  0  0  0  0  0  0  0
   -8.2739    9.0695    2.7250 C   0  0  0  0  0  0  0  0  0  0  0  0
  -10.4491    4.4424    1.3997 N   0  0  0  0  0  0  0  0  0  0  0  0
   -9.5974    0.8844   -0.2065 O   0  0  0  0  0  0  0  0  0  0  0  0
   -7.7305   -8.7536   -2.9549 C   0  0  0  0  0  0  0  0  0  0  0  0
   -8.1308   -9.9477   -3.6062 C   0  0  0  0  0  0  0  0  0  0  0  0
   -7.1731  -11.1025   -3.7257 C   0  0  0  0  0  0  0  0  0  0  0  0
  -10.9669  -11.1706   -5.1579 H   0  0  0  0  0  0  0  0  0  0  0  0
   -9.9037  -12.1383   -4.1364 H   0  0  0  0  0  0  0  0  0  0  0  0
   -9.3251  -11.5086   -5.7098 H   0  0  0  0  0  0  0  0  0  0  0  0
  -11.2932   -8.9864   -4.4446 H   0  0  0  0  0  0  0  0  0  0  0  0
  -10.6035   -6.9752   -3.3614 H   0  0  0  0  0  0  0  0  0  0  0  0
   -7.2103   -6.5095   -1.8036 H   0  0  0  0  0  0  0  0  0  0  0  0
   -7.2851   -3.9394   -1.7762 H   0  0  0  0  0  0  0  0  0  0  0  0
   -7.8980   -4.6009   -0.2350 H   0  0  0  0  0  0  0  0  0  0  0  0
  -10.0271   -3.3232   -0.5165 H   0  0  0  0  0  0  0  0  0  0  0  0
   -9.4664   -2.6852   -2.0701 H   0  0  0  0  0  0  0  0  0  0  0  0
  -12.1107    2.9369   -0.8022 H   0  0  0  0  0  0  0  0  0  0  0  0
  -10.3850    3.2598   -0.8165 H   0  0  0  0  0  0  0  0  0  0  0  0
  -12.9699    2.3344    2.1302 H   0  0  0  0  0  0  0  0  0  0  0  0
  -10.2775    6.0624    4.2299 H   0  0  0  0  0  0  0  0  0  0  0  0
   -8.2474    6.6643    5.1517 H   0  0  0  0  0  0  0  0  0  0  0  0
   -6.9498    8.4175    6.3040 H   0  0  0  0  0  0  0  0  0  0  0  0
   -6.4567   10.5659    5.1709 H   0  0  0  0  0  0  0  0  0  0  0  0
   -7.3030   10.9848    2.8754 H   0  0  0  0  0  0  0  0  0  0  0  0
   -8.6206    9.2518    1.7087 H   0  0  0  0  0  0  0  0  0  0  0  0
   -6.7260   -8.6975   -2.5430 H   0  0  0  0  0  0  0  0  0  0  0  0
   -6.2037  -10.8783   -3.2710 H   0  0  0  0  0  0  0  0  0  0  0  0
   -6.9970  -11.3400   -4.7806 H   0  0  0  0  0  0  0  0  0  0  0  0
   -7.5802  -11.9865   -3.2232 H   0  0  0  0  0  0  0  0  0  0  0  0
  1  2  1  0  0  0  0
  1 35  1  0  0  0  0
  1 36  1  0  0  0  0
  1 37  1  0  0  0  0
  2  3  1  0  0  0  0
  2 33  2  0  0  0  0
  3  4  2  0  0  0  0
  3 38  1  0  0  0  0
  4  5  1  0  0  0  0
  4 39  1  0  0  0  0
  5  6  1  0  0  0  0
  5 32  2  0  0  0  0
  6  7  1  0  0  0  0
  6 40  1  0  0  0  0
  7  8  2  0  0  0  0
  7  9  1  0  0  0  0
  9 10  1  0  0  0  0
  9 41  1  0  0  0  0
  9 42  1  0  0  0  0
 10 11  1  0  0  0  0
 10 43  1  0  0  0  0
 10 44  1  0  0  0  0
 11 12  1  0  0  0  0
 12 13  2  0  0  0  0
 12 31  1  0  0  0  0
 13 14  1  0  0  0  0
 14 15  2  0  0  0  0
 15 16  1  0  0  0  0
 15 31  1  0  0  0  0
 16 17  1  0  0  0  0
 16 45  1  0  0  0  0
 16 46  1  0  0  0  0
 17 18  2  0  0  0  0
 17 30  1  0  0  0  0
 18 19  1  0  0  0  0
 18 47  1  0  0  0  0
 19 20  1  0  0  0  0
 20 21  1  0  0  0  0
 20 30  2  0  0  0  0
 21 22  1  0  0  0  0
 21 48  1  0  0  0  0
 22 23  2  0  0  0  0
 22 24  1  0  0  0  0
 24 25  1  0  0  0  0
 24 29  2  0  0  0  0
 25 26  2  0  0  0  0
 25 49  1  0  0  0  0
 26 27  1  0  0  0  0
 26 50  1  0  0  0  0
 27 28  2  0  0  0  0
 27 51  1  0  0  0  0
 28 29  1  0  0  0  0
 28 52  1  0  0  0  0
 29 53  1  0  0  0  0
 32 33  1  0  0  0  0
 32 54  1  0  0  0  0
 33 34  1  0  0  0  0
 34 55  1  0  0  0  0
 34 56  1  0  0  0  0
 34 57  1  0  0  0  0
M  END
>  <Line_Number>
145


> <IC50>
34190

$$$$
