CHEMBL4129880
 OpenBabel09092522103D

 57 60  0  0  0  0  0  0  0  0999 V2000
   -2.8075    0.0313   -3.3740 C   0  0  0  0  0  0  0  0  0  0  0  0
   -1.4422   -0.5850   -3.2553 C   0  0  0  0  0  0  0  0  0  0  0  0
   -0.3254    0.0862   -3.7677 C   0  0  0  0  0  0  0  0  0  0  0  0
    0.9460   -0.4806   -3.6612 C   0  0  0  0  0  0  0  0  0  0  0  0
    2.1628    0.2076   -4.2013 C   0  0  0  0  0  0  0  0  0  0  0  0
    1.0854   -1.7257   -3.0349 C   0  0  0  0  0  0  0  0  0  0  0  0
   -0.0087   -2.4261   -2.5129 C   0  0  0  0  0  0  0  0  0  0  0  0
    0.1137   -3.6937   -1.8713 N   0  0  0  0  0  0  0  0  0  0  0  0
    1.3010   -4.3848   -1.6864 C   0  0  0  0  0  0  0  0  0  0  0  0
    2.4071   -4.0044   -2.0627 O   0  0  0  0  0  0  0  0  0  0  0  0
    1.1757   -5.7187   -0.9596 C   0  0  0  0  0  0  0  0  0  0  0  0
    2.5736   -6.3545   -0.8242 C   0  0  0  0  0  0  0  0  0  0  0  0
    2.5187   -7.9634    0.0138 S   0  0  0  0  0  0  0  0  0  0  0  0
    4.2000   -8.4296   -0.0062 C   0  0  0  0  0  0  0  0  0  0  0  0
    5.2319   -7.6026    0.0016 N   0  0  0  0  0  0  0  0  0  0  0  0
    6.3755   -8.3839    0.0074 N   0  0  0  0  0  0  0  0  0  0  0  0
    5.9688   -9.6370    0.0013 C   0  0  0  0  0  0  0  0  0  0  0  0
    6.7647  -10.8922   -0.0619 C   0  0  0  0  0  0  0  0  0  0  0  0
    7.0841  -11.4649    1.2856 C   0  0  0  0  0  0  0  0  0  0  0  0
    7.8192  -10.8930    2.3112 C   0  0  0  0  0  0  0  0  0  0  0  0
    7.8267  -11.9370    3.6821 S   0  0  0  0  0  0  0  0  0  0  0  0
    6.9585  -13.0931    2.7806 C   0  0  0  0  0  0  0  0  0  0  0  0
    6.6763  -14.2654    3.4333 N   0  0  0  0  0  0  0  0  0  0  0  0
    6.2754  -15.3741    2.7172 C   0  0  0  0  0  0  0  0  0  0  0  0
    6.2229  -15.4646    1.4942 O   0  0  0  0  0  0  0  0  0  0  0  0
    5.9308  -16.5924    3.5021 C   0  0  0  0  0  0  0  0  0  0  0  0
    5.3928  -16.5405    4.7929 C   0  0  0  0  0  0  0  0  0  0  0  0
    4.9953  -17.7228    5.4267 C   0  0  0  0  0  0  0  0  0  0  0  0
    5.1320  -18.9524    4.7786 C   0  0  0  0  0  0  0  0  0  0  0  0
    5.6773  -19.0104    3.4990 C   0  0  0  0  0  0  0  0  0  0  0  0
    6.0758  -17.8350    2.8640 C   0  0  0  0  0  0  0  0  0  0  0  0
    6.6364  -12.7461    1.5627 N   0  0  0  0  0  0  0  0  0  0  0  0
    4.6013   -9.7432   -0.0041 O   0  0  0  0  0  0  0  0  0  0  0  0
   -1.2760   -1.8400   -2.6324 C   0  0  0  0  0  0  0  0  0  0  0  0
   -2.7655    1.0105   -3.8661 H   0  0  0  0  0  0  0  0  0  0  0  0
   -3.2440    0.1775   -2.3814 H   0  0  0  0  0  0  0  0  0  0  0  0
   -3.4620   -0.6126   -3.9691 H   0  0  0  0  0  0  0  0  0  0  0  0
   -0.4426    1.0555   -4.2497 H   0  0  0  0  0  0  0  0  0  0  0  0
    1.9145    1.1601   -4.6770 H   0  0  0  0  0  0  0  0  0  0  0  0
    2.6509   -0.4233   -4.9519 H   0  0  0  0  0  0  0  0  0  0  0  0
    2.8669    0.4109   -3.3872 H   0  0  0  0  0  0  0  0  0  0  0  0
    2.0943   -2.1217   -2.9830 H   0  0  0  0  0  0  0  0  0  0  0  0
   -0.7414   -4.1131   -1.5245 H   0  0  0  0  0  0  0  0  0  0  0  0
    0.5079   -6.3635   -1.5397 H   0  0  0  0  0  0  0  0  0  0  0  0
    0.7331   -5.5365    0.0255 H   0  0  0  0  0  0  0  0  0  0  0  0
    3.2319   -5.6782   -0.2669 H   0  0  0  0  0  0  0  0  0  0  0  0
    3.0093   -6.4960   -1.8216 H   0  0  0  0  0  0  0  0  0  0  0  0
    7.6983  -10.7123   -0.6081 H   0  0  0  0  0  0  0  0  0  0  0  0
    6.2062  -11.6364   -0.6448 H   0  0  0  0  0  0  0  0  0  0  0  0
    8.3112   -9.9302    2.3360 H   0  0  0  0  0  0  0  0  0  0  0  0
    6.8869  -14.3112    4.4168 H   0  0  0  0  0  0  0  0  0  0  0  0
    5.2279  -15.5956    5.3020 H   0  0  0  0  0  0  0  0  0  0  0  0
    4.5521  -17.6868    6.4192 H   0  0  0  0  0  0  0  0  0  0  0  0
    4.7977  -19.8658    5.2645 H   0  0  0  0  0  0  0  0  0  0  0  0
    5.7750  -19.9631    2.9845 H   0  0  0  0  0  0  0  0  0  0  0  0
    6.4823  -17.8860    1.8548 H   0  0  0  0  0  0  0  0  0  0  0  0
   -2.1570   -2.3440   -2.2425 H   0  0  0  0  0  0  0  0  0  0  0  0
  1  2  1  0  0  0  0
  1 35  1  0  0  0  0
  1 36  1  0  0  0  0
  1 37  1  0  0  0  0
  2  3  1  0  0  0  0
  2 34  2  0  0  0  0
  3  4  2  0  0  0  0
  3 38  1  0  0  0  0
  4  5  1  0  0  0  0
  4  6  1  0  0  0  0
  5 39  1  0  0  0  0
  5 40  1  0  0  0  0
  5 41  1  0  0  0  0
  6  7  2  0  0  0  0
  6 42  1  0  0  0  0
  7  8  1  0  0  0  0
  7 34  1  0  0  0  0
  8  9  1  0  0  0  0
  8 43  1  0  0  0  0
  9 10  2  0  0  0  0
  9 11  1  0  0  0  0
 11 12  1  0  0  0  0
 11 44  1  0  0  0  0
 11 45  1  0  0  0  0
 12 13  1  0  0  0  0
 12 46  1  0  0  0  0
 12 47  1  0  0  0  0
 13 14  1  0  0  0  0
 14 15  2  0  0  0  0
 14 33  1  0  0  0  0
 15 16  1  0  0  0  0
 16 17  2  0  0  0  0
 17 18  1  0  0  0  0
 17 33  1  0  0  0  0
 18 19  1  0  0  0  0
 18 48  1  0  0  0  0
 18 49  1  0  0  0  0
 19 20  2  0  0  0  0
 19 32  1  0  0  0  0
 20 21  1  0  0  0  0
 20 50  1  0  0  0  0
 21 22  1  0  0  0  0
 22 23  1  0  0  0  0
 22 32  2  0  0  0  0
 23 24  1  0  0  0  0
 23 51  1  0  0  0  0
 24 25  2  0  0  0  0
 24 26  1  0  0  0  0
 26 27  1  0  0  0  0
 26 31  2  0  0  0  0
 27 28  2  0  0  0  0
 27 52  1  0  0  0  0
 28 29  1  0  0  0  0
 28 53  1  0  0  0  0
 29 30  2  0  0  0  0
 29 54  1  0  0  0  0
 30 31  1  0  0  0  0
 30 55  1  0  0  0  0
 31 56  1  0  0  0  0
 34 57  1  0  0  0  0
M  END
>  <Line_Number>
146


> <IC50>
52120

$$$$
