CHEMBL4294712
 OpenBabel09092522103D

 44 46  0  0  0  0  0  0  0  0999 V2000
    0.9175    0.1263    0.5266 C   0  0  0  0  0  0  0  0  0  0  0  0
    2.3044    0.5816    0.1633 C   0  0  0  0  0  0  0  0  0  0  0  0
    2.4781    1.2348   -1.1801 C   0  0  0  0  0  0  0  0  0  0  0  0
    3.3249    0.4193    1.0307 C   0  0  0  0  0  0  0  0  0  0  0  0
    4.7475    0.8562    0.8164 C   0  0  0  0  0  0  0  0  0  0  0  0
    5.1205    1.7770    1.8632 N   0  0  0  0  0  0  0  0  0  0  0  0
    4.9247    3.1439    1.7762 C   0  0  0  0  0  0  0  0  0  0  0  0
    4.4620    3.7967    0.8666 O   0  0  0  0  0  0  0  0  0  0  0  0
    5.4418    3.7129    3.1123 C   0  0  0  0  0  0  0  0  0  0  0  0
    5.2653    4.9640    3.4130 N   0  0  0  0  0  0  0  0  0  0  0  0
    5.6076    5.4179    4.6477 N   0  0  0  0  0  0  0  0  0  0  0  0
    5.4374    6.7540    4.9824 C   0  0  0  0  0  0  0  0  0  0  0  0
    4.9586    7.6263    4.2676 O   0  0  0  0  0  0  0  0  0  0  0  0
    5.8787    7.1046    6.3654 C   0  0  0  0  0  0  0  0  0  0  0  0
    6.9429    6.4327    6.9872 C   0  0  0  0  0  0  0  0  0  0  0  0
    7.3565    6.8050    8.2693 C   0  0  0  0  0  0  0  0  0  0  0  0
    6.7190    7.8568    8.9257 C   0  0  0  0  0  0  0  0  0  0  0  0
    7.2522    8.3292   10.4906 Cl  0  0  0  0  0  0  0  0  0  0  0  0
    5.6677    8.5375    8.3127 C   0  0  0  0  0  0  0  0  0  0  0  0
    5.2487    8.1638    7.0316 C   0  0  0  0  0  0  0  0  0  0  0  0
    6.0376    2.5735    3.8291 C   0  0  0  0  0  0  0  0  0  0  0  0
    6.7706    2.4832    5.0031 C   0  0  0  0  0  0  0  0  0  0  0  0
    7.1757    1.2177    5.4354 C   0  0  0  0  0  0  0  0  0  0  0  0
    6.8729    0.0732    4.6832 C   0  0  0  0  0  0  0  0  0  0  0  0
    6.1771    0.1775    3.4761 C   0  0  0  0  0  0  0  0  0  0  0  0
    5.7740    1.4361    3.0570 C   0  0  0  0  0  0  0  0  0  0  0  0
    0.1977    0.3308   -0.2724 H   0  0  0  0  0  0  0  0  0  0  0  0
    0.5653    0.6485    1.4225 H   0  0  0  0  0  0  0  0  0  0  0  0
    0.9006   -0.9525    0.7131 H   0  0  0  0  0  0  0  0  0  0  0  0
    1.5375    1.2847   -1.7377 H   0  0  0  0  0  0  0  0  0  0  0  0
    3.1863    0.6671   -1.7927 H   0  0  0  0  0  0  0  0  0  0  0  0
    2.8418    2.2613   -1.0679 H   0  0  0  0  0  0  0  0  0  0  0  0
    3.1220   -0.0650    1.9849 H   0  0  0  0  0  0  0  0  0  0  0  0
    4.8801    1.3628   -0.1448 H   0  0  0  0  0  0  0  0  0  0  0  0
    5.4125   -0.0125    0.8125 H   0  0  0  0  0  0  0  0  0  0  0  0
    5.7133    4.7518    5.3939 H   0  0  0  0  0  0  0  0  0  0  0  0
    7.4906    5.6484    6.4737 H   0  0  0  0  0  0  0  0  0  0  0  0
    8.1881    6.2873    8.7409 H   0  0  0  0  0  0  0  0  0  0  0  0
    5.1782    9.3657    8.8190 H   0  0  0  0  0  0  0  0  0  0  0  0
    4.4365    8.7060    6.5495 H   0  0  0  0  0  0  0  0  0  0  0  0
    7.0688    3.3457    5.5810 H   0  0  0  0  0  0  0  0  0  0  0  0
    7.7403    1.1174    6.3601 H   0  0  0  0  0  0  0  0  0  0  0  0
    7.2002   -0.9027    5.0369 H   0  0  0  0  0  0  0  0  0  0  0  0
    5.9765   -0.7158    2.8956 H   0  0  0  0  0  0  0  0  0  0  0  0
  1  2  1  0  0  0  0
  1 27  1  0  0  0  0
  1 28  1  0  0  0  0
  1 29  1  0  0  0  0
  2  3  1  0  0  0  0
  2  4  2  0  0  0  0
  3 30  1  0  0  0  0
  3 31  1  0  0  0  0
  3 32  1  0  0  0  0
  4  5  1  0  0  0  0
  4 33  1  0  0  0  0
  5  6  1  0  0  0  0
  5 34  1  0  0  0  0
  5 35  1  0  0  0  0
  6  7  1  0  0  0  0
  6 26  1  0  0  0  0
  7  8  2  0  0  0  0
  7  9  1  0  0  0  0
  9 10  2  0  0  0  0
  9 21  1  0  0  0  0
 10 11  1  0  0  0  0
 11 12  1  0  0  0  0
 11 36  1  0  0  0  0
 12 13  2  0  0  0  0
 12 14  1  0  0  0  0
 14 15  1  0  0  0  0
 14 20  2  0  0  0  0
 15 16  2  0  0  0  0
 15 37  1  0  0  0  0
 16 17  1  0  0  0  0
 16 38  1  0  0  0  0
 17 18  1  0  0  0  0
 17 19  2  0  0  0  0
 19 20  1  0  0  0  0
 19 39  1  0  0  0  0
 20 40  1  0  0  0  0
 21 22  1  0  0  0  0
 21 26  2  0  0  0  0
 22 23  2  0  0  0  0
 22 41  1  0  0  0  0
 23 24  1  0  0  0  0
 23 42  1  0  0  0  0
 24 25  2  0  0  0  0
 24 43  1  0  0  0  0
 25 26  1  0  0  0  0
 25 44  1  0  0  0  0
M  END
>  <Line_Number>
150


> <IC50>
143000

$$$$
