CHEMBL4279579
 OpenBabel09092522103D

 53 55  0  0  0  0  0  0  0  0999 V2000
    1.0368   -0.6234   -0.2313 C   0  0  0  0  0  0  0  0  0  0  0  0
    2.5417   -0.6090   -0.2401 C   0  0  0  0  0  0  0  0  0  0  0  0
    3.2369   -1.2999    0.9004 C   0  0  0  0  0  0  0  0  0  0  0  0
    3.2150    0.0536   -1.2046 C   0  0  0  0  0  0  0  0  0  0  0  0
    4.7091    0.2070   -1.2826 C   0  0  0  0  0  0  0  0  0  0  0  0
    5.1412    0.2652   -2.6574 N   0  0  0  0  0  0  0  0  0  0  0  0
    5.2752    1.4509   -3.3620 C   0  0  0  0  0  0  0  0  0  0  0  0
    5.0649    2.5843   -2.9927 O   0  0  0  0  0  0  0  0  0  0  0  0
    5.8019    1.0441   -4.7512 C   0  0  0  0  0  0  0  0  0  0  0  0
    6.0667    1.9352   -5.6556 N   0  0  0  0  0  0  0  0  0  0  0  0
    6.6502    1.5431   -6.8224 N   0  0  0  0  0  0  0  0  0  0  0  0
    6.5500    2.3466   -7.9505 C   0  0  0  0  0  0  0  0  0  0  0  0
    5.9305    3.4035   -8.0187 O   0  0  0  0  0  0  0  0  0  0  0  0
    7.2503    1.8357   -9.1667 C   0  0  0  0  0  0  0  0  0  0  0  0
    7.4771    0.4701   -9.3801 C   0  0  0  0  0  0  0  0  0  0  0  0
    8.0979    0.0263  -10.5521 C   0  0  0  0  0  0  0  0  0  0  0  0
    8.4930    0.9364  -11.5414 C   0  0  0  0  0  0  0  0  0  0  0  0
    9.1408    0.4352  -12.8219 C   0  0  0  0  0  0  0  0  0  0  0  0
    8.3083    0.8027  -14.0529 C   0  0  0  0  0  0  0  0  0  0  0  0
   10.5749    0.9477  -12.9711 C   0  0  0  0  0  0  0  0  0  0  0  0
    8.2498    2.3016  -11.3274 C   0  0  0  0  0  0  0  0  0  0  0  0
    7.6294    2.7478  -10.1559 C   0  0  0  0  0  0  0  0  0  0  0  0
    5.8880   -0.4232   -4.7324 C   0  0  0  0  0  0  0  0  0  0  0  0
    6.2189   -1.3446   -5.7105 C   0  0  0  0  0  0  0  0  0  0  0  0
    6.2346   -2.6983   -5.3660 C   0  0  0  0  0  0  0  0  0  0  0  0
    5.8951   -3.1070   -4.0680 C   0  0  0  0  0  0  0  0  0  0  0  0
    5.5094   -2.1734   -3.1008 C   0  0  0  0  0  0  0  0  0  0  0  0
    5.5057   -0.8331   -3.4509 C   0  0  0  0  0  0  0  0  0  0  0  0
    0.6386   -1.1598    0.6358 H   0  0  0  0  0  0  0  0  0  0  0  0
    0.6470   -1.1127   -1.1267 H   0  0  0  0  0  0  0  0  0  0  0  0
    0.6429    0.4002   -0.1833 H   0  0  0  0  0  0  0  0  0  0  0  0
    2.5274   -1.7298    1.6130 H   0  0  0  0  0  0  0  0  0  0  0  0
    3.8615   -0.5908    1.4541 H   0  0  0  0  0  0  0  0  0  0  0  0
    3.8636   -2.1178    0.5300 H   0  0  0  0  0  0  0  0  0  0  0  0
    2.6417    0.5725   -1.9742 H   0  0  0  0  0  0  0  0  0  0  0  0
    5.2424   -0.6014   -0.7728 H   0  0  0  0  0  0  0  0  0  0  0  0
    4.9858    1.1473   -0.7950 H   0  0  0  0  0  0  0  0  0  0  0  0
    7.3922    0.8566   -6.7633 H   0  0  0  0  0  0  0  0  0  0  0  0
    7.1398   -0.2757   -8.6715 H   0  0  0  0  0  0  0  0  0  0  0  0
    8.2498   -1.0425  -10.6951 H   0  0  0  0  0  0  0  0  0  0  0  0
    9.1931   -0.6614  -12.7840 H   0  0  0  0  0  0  0  0  0  0  0  0
    8.1823    1.8861  -14.1554 H   0  0  0  0  0  0  0  0  0  0  0  0
    7.3097    0.3554  -13.9953 H   0  0  0  0  0  0  0  0  0  0  0  0
    8.7874    0.4382  -14.9676 H   0  0  0  0  0  0  0  0  0  0  0  0
   10.6165    2.0410  -13.0204 H   0  0  0  0  0  0  0  0  0  0  0  0
   11.0292    0.5564  -13.8882 H   0  0  0  0  0  0  0  0  0  0  0  0
   11.1965    0.6261  -12.1277 H   0  0  0  0  0  0  0  0  0  0  0  0
    8.5267    3.0370  -12.0807 H   0  0  0  0  0  0  0  0  0  0  0  0
    7.4312    3.8096  -10.0243 H   0  0  0  0  0  0  0  0  0  0  0  0
    6.4397   -1.0569   -6.7265 H   0  0  0  0  0  0  0  0  0  0  0  0
    6.5025   -3.4439   -6.1122 H   0  0  0  0  0  0  0  0  0  0  0  0
    5.9175   -4.1676   -3.8177 H   0  0  0  0  0  0  0  0  0  0  0  0
    5.2201   -2.5109   -2.1119 H   0  0  0  0  0  0  0  0  0  0  0  0
  1  2  1  0  0  0  0
  1 29  1  0  0  0  0
  1 30  1  0  0  0  0
  1 31  1  0  0  0  0
  2  3  1  0  0  0  0
  2  4  2  0  0  0  0
  3 32  1  0  0  0  0
  3 33  1  0  0  0  0
  3 34  1  0  0  0  0
  4  5  1  0  0  0  0
  4 35  1  0  0  0  0
  5  6  1  0  0  0  0
  5 36  1  0  0  0  0
  5 37  1  0  0  0  0
  6  7  1  0  0  0  0
  6 28  1  0  0  0  0
  7  8  2  0  0  0  0
  7  9  1  0  0  0  0
  9 10  2  0  0  0  0
  9 23  1  0  0  0  0
 10 11  1  0  0  0  0
 11 12  1  0  0  0  0
 11 38  1  0  0  0  0
 12 13  2  0  0  0  0
 12 14  1  0  0  0  0
 14 15  1  0  0  0  0
 14 22  2  0  0  0  0
 15 16  2  0  0  0  0
 15 39  1  0  0  0  0
 16 17  1  0  0  0  0
 16 40  1  0  0  0  0
 17 18  1  0  0  0  0
 17 21  2  0  0  0  0
 18 19  1  0  0  0  0
 18 20  1  0  0  0  0
 18 41  1  0  0  0  0
 19 42  1  0  0  0  0
 19 43  1  0  0  0  0
 19 44  1  0  0  0  0
 20 45  1  0  0  0  0
 20 46  1  0  0  0  0
 20 47  1  0  0  0  0
 21 22  1  0  0  0  0
 21 48  1  0  0  0  0
 22 49  1  0  0  0  0
 23 24  1  0  0  0  0
 23 28  2  0  0  0  0
 24 25  2  0  0  0  0
 24 50  1  0  0  0  0
 25 26  1  0  0  0  0
 25 51  1  0  0  0  0
 26 27  2  0  0  0  0
 26 52  1  0  0  0  0
 27 28  1  0  0  0  0
 27 53  1  0  0  0  0
M  END
>  <Line_Number>
154


> <IC50>
14900

$$$$
