CHEMBL4290913
 OpenBabel09092522103D

 56 58  0  0  0  0  0  0  0  0999 V2000
    1.8098    1.2554    2.1518 C   0  0  0  0  0  0  0  0  0  0  0  0
    3.1940    0.8058    1.7728 C   0  0  0  0  0  0  0  0  0  0  0  0
    4.3151    1.7835    1.9957 C   0  0  0  0  0  0  0  0  0  0  0  0
    3.3917   -0.4269    1.2623 C   0  0  0  0  0  0  0  0  0  0  0  0
    4.7054   -1.0035    0.8131 C   0  0  0  0  0  0  0  0  0  0  0  0
    5.0118   -2.1622    1.6105 N   0  0  0  0  0  0  0  0  0  0  0  0
    5.7852   -2.1136    2.7574 C   0  0  0  0  0  0  0  0  0  0  0  0
    6.3198   -1.1601    3.2815 O   0  0  0  0  0  0  0  0  0  0  0  0
    5.8449   -3.5645    3.2707 C   0  0  0  0  0  0  0  0  0  0  0  0
    6.4702   -3.8629    4.3671 N   0  0  0  0  0  0  0  0  0  0  0  0
    6.3862   -5.1323    4.8510 N   0  0  0  0  0  0  0  0  0  0  0  0
    7.3188   -5.5935    5.7733 C   0  0  0  0  0  0  0  0  0  0  0  0
    8.2739   -4.9561    6.2038 O   0  0  0  0  0  0  0  0  0  0  0  0
    7.1150   -7.0006    6.2330 C   0  0  0  0  0  0  0  0  0  0  0  0
    6.4508   -7.9449    5.4456 C   0  0  0  0  0  0  0  0  0  0  0  0
    6.3280   -9.2719    5.8686 C   0  0  0  0  0  0  0  0  0  0  0  0
    6.8780   -9.7058    7.0844 C   0  0  0  0  0  0  0  0  0  0  0  0
    6.7999  -11.1737    7.5390 C   0  0  0  0  0  0  0  0  0  0  0  0
    6.0304  -12.0848    6.5536 C   0  0  0  0  0  0  0  0  0  0  0  0
    8.2252  -11.7500    7.6738 C   0  0  0  0  0  0  0  0  0  0  0  0
    6.0826  -11.2694    8.9011 C   0  0  0  0  0  0  0  0  0  0  0  0
    7.5454   -8.7445    7.8681 C   0  0  0  0  0  0  0  0  0  0  0  0
    7.6672   -7.4102    7.4484 C   0  0  0  0  0  0  0  0  0  0  0  0
    5.1102   -4.3683    2.2830 C   0  0  0  0  0  0  0  0  0  0  0  0
    4.9176   -5.7328    2.1511 C   0  0  0  0  0  0  0  0  0  0  0  0
    4.1655   -6.1971    1.0688 C   0  0  0  0  0  0  0  0  0  0  0  0
    3.6440   -5.3008    0.1262 C   0  0  0  0  0  0  0  0  0  0  0  0
    3.8777   -3.9278    0.2421 C   0  0  0  0  0  0  0  0  0  0  0  0
    4.6190   -3.4780    1.3240 C   0  0  0  0  0  0  0  0  0  0  0  0
    1.8162    2.2389    2.6321 H   0  0  0  0  0  0  0  0  0  0  0  0
    1.3522    0.5529    2.8563 H   0  0  0  0  0  0  0  0  0  0  0  0
    1.1768    1.3291    1.2613 H   0  0  0  0  0  0  0  0  0  0  0  0
    3.9653    2.7063    2.4683 H   0  0  0  0  0  0  0  0  0  0  0  0
    4.7773    2.0601    1.0425 H   0  0  0  0  0  0  0  0  0  0  0  0
    5.0775    1.3555    2.6545 H   0  0  0  0  0  0  0  0  0  0  0  0
    2.5286   -1.0790    1.1373 H   0  0  0  0  0  0  0  0  0  0  0  0
    5.5251   -0.2849    0.9119 H   0  0  0  0  0  0  0  0  0  0  0  0
    4.6509   -1.2765   -0.2461 H   0  0  0  0  0  0  0  0  0  0  0  0
    5.4916   -5.5985    4.7746 H   0  0  0  0  0  0  0  0  0  0  0  0
    6.0560   -7.6926    4.4703 H   0  0  0  0  0  0  0  0  0  0  0  0
    5.8107   -9.9572    5.2030 H   0  0  0  0  0  0  0  0  0  0  0  0
    6.5118  -12.1106    5.5685 H   0  0  0  0  0  0  0  0  0  0  0  0
    4.9956  -11.7478    6.4176 H   0  0  0  0  0  0  0  0  0  0  0  0
    5.9881  -13.1180    6.9170 H   0  0  0  0  0  0  0  0  0  0  0  0
    8.7585  -11.7124    6.7165 H   0  0  0  0  0  0  0  0  0  0  0  0
    8.1977  -12.7966    7.9989 H   0  0  0  0  0  0  0  0  0  0  0  0
    8.8265  -11.2018    8.4074 H   0  0  0  0  0  0  0  0  0  0  0  0
    5.0619  -10.8739    8.8389 H   0  0  0  0  0  0  0  0  0  0  0  0
    6.6057  -10.7134    9.6861 H   0  0  0  0  0  0  0  0  0  0  0  0
    6.0152  -12.3115    9.2358 H   0  0  0  0  0  0  0  0  0  0  0  0
    8.0022   -9.0214    8.8149 H   0  0  0  0  0  0  0  0  0  0  0  0
    8.2142   -6.6987    8.0657 H   0  0  0  0  0  0  0  0  0  0  0  0
    5.3528   -6.4462    2.8310 H   0  0  0  0  0  0  0  0  0  0  0  0
    3.9943   -7.2655    0.9478 H   0  0  0  0  0  0  0  0  0  0  0  0
    3.0667   -5.6819   -0.7142 H   0  0  0  0  0  0  0  0  0  0  0  0
    3.4898   -3.2523   -0.5119 H   0  0  0  0  0  0  0  0  0  0  0  0
  1  2  1  0  0  0  0
  1 30  1  0  0  0  0
  1 31  1  0  0  0  0
  1 32  1  0  0  0  0
  2  3  1  0  0  0  0
  2  4  2  0  0  0  0
  3 33  1  0  0  0  0
  3 34  1  0  0  0  0
  3 35  1  0  0  0  0
  4  5  1  0  0  0  0
  4 36  1  0  0  0  0
  5  6  1  0  0  0  0
  5 37  1  0  0  0  0
  5 38  1  0  0  0  0
  6  7  1  0  0  0  0
  6 29  1  0  0  0  0
  7  8  2  0  0  0  0
  7  9  1  0  0  0  0
  9 10  2  0  0  0  0
  9 24  1  0  0  0  0
 10 11  1  0  0  0  0
 11 12  1  0  0  0  0
 11 39  1  0  0  0  0
 12 13  2  0  0  0  0
 12 14  1  0  0  0  0
 14 15  1  0  0  0  0
 14 23  2  0  0  0  0
 15 16  2  0  0  0  0
 15 40  1  0  0  0  0
 16 17  1  0  0  0  0
 16 41  1  0  0  0  0
 17 18  1  0  0  0  0
 17 22  2  0  0  0  0
 18 19  1  0  0  0  0
 18 20  1  0  0  0  0
 18 21  1  0  0  0  0
 19 42  1  0  0  0  0
 19 43  1  0  0  0  0
 19 44  1  0  0  0  0
 20 45  1  0  0  0  0
 20 46  1  0  0  0  0
 20 47  1  0  0  0  0
 21 48  1  0  0  0  0
 21 49  1  0  0  0  0
 21 50  1  0  0  0  0
 22 23  1  0  0  0  0
 22 51  1  0  0  0  0
 23 52  1  0  0  0  0
 24 25  1  0  0  0  0
 24 29  2  0  0  0  0
 25 26  2  0  0  0  0
 25 53  1  0  0  0  0
 26 27  1  0  0  0  0
 26 54  1  0  0  0  0
 27 28  2  0  0  0  0
 27 55  1  0  0  0  0
 28 29  1  0  0  0  0
 28 56  1  0  0  0  0
M  END
>  <Line_Number>
156


> <IC50>
19500

$$$$
