CHEMBL4293217
 OpenBabel09092522103D

 47 49  0  0  0  0  0  0  0  0999 V2000
    7.0390    1.2077    1.9013 C   0  0  0  0  0  0  0  0  0  0  0  0
    5.8602    1.3175    0.9743 C   0  0  0  0  0  0  0  0  0  0  0  0
    4.7161    2.1857    1.4233 C   0  0  0  0  0  0  0  0  0  0  0  0
    5.8442    0.6495   -0.1975 C   0  0  0  0  0  0  0  0  0  0  0  0
    4.7109    0.6359   -1.1834 C   0  0  0  0  0  0  0  0  0  0  0  0
    5.1538    1.1666   -2.4467 N   0  0  0  0  0  0  0  0  0  0  0  0
    5.0457    2.5036   -2.7975 C   0  0  0  0  0  0  0  0  0  0  0  0
    4.6285    3.4342   -2.1480 O   0  0  0  0  0  0  0  0  0  0  0  0
    5.5698    2.5858   -4.2471 C   0  0  0  0  0  0  0  0  0  0  0  0
    5.6451    3.7192   -4.8685 N   0  0  0  0  0  0  0  0  0  0  0  0
    6.2088    3.7714   -6.1064 N   0  0  0  0  0  0  0  0  0  0  0  0
    5.8629    4.8017   -6.9694 C   0  0  0  0  0  0  0  0  0  0  0  0
    5.0446    5.6850   -6.7312 O   0  0  0  0  0  0  0  0  0  0  0  0
    6.5127    4.7727   -8.3113 C   0  0  0  0  0  0  0  0  0  0  0  0
    6.9557    3.5801   -8.8981 C   0  0  0  0  0  0  0  0  0  0  0  0
    7.4339    3.5711  -10.2111 C   0  0  0  0  0  0  0  0  0  0  0  0
    7.4398    4.7483  -10.9563 C   0  0  0  0  0  0  0  0  0  0  0  0
    6.9758    5.9473  -10.3961 C   0  0  0  0  0  0  0  0  0  0  0  0
    6.8630    7.2025  -11.2259 C   0  0  0  0  0  0  0  0  0  0  0  0
    7.2220    7.0200  -12.5280 F   0  0  0  0  0  0  0  0  0  0  0  0
    5.5901    7.6848  -11.2585 F   0  0  0  0  0  0  0  0  0  0  0  0
    7.6416    8.2163  -10.7614 F   0  0  0  0  0  0  0  0  0  0  0  0
    6.5441    5.9561   -9.0591 C   0  0  0  0  0  0  0  0  0  0  0  0
    5.8847    1.2034   -4.6399 C   0  0  0  0  0  0  0  0  0  0  0  0
    6.2927    0.6454   -5.8397 C   0  0  0  0  0  0  0  0  0  0  0  0
    6.5686   -0.7245   -5.8719 C   0  0  0  0  0  0  0  0  0  0  0  0
    6.3967   -1.5147   -4.7260 C   0  0  0  0  0  0  0  0  0  0  0  0
    5.9132   -0.9547   -3.5406 C   0  0  0  0  0  0  0  0  0  0  0  0
    5.6578    0.4074   -3.5140 C   0  0  0  0  0  0  0  0  0  0  0  0
    6.8962    1.7948    2.8142 H   0  0  0  0  0  0  0  0  0  0  0  0
    7.9511    1.5709    1.4171 H   0  0  0  0  0  0  0  0  0  0  0  0
    7.1877    0.1664    2.2065 H   0  0  0  0  0  0  0  0  0  0  0  0
    4.8993    2.6335    2.4038 H   0  0  0  0  0  0  0  0  0  0  0  0
    3.7978    1.5944    1.5052 H   0  0  0  0  0  0  0  0  0  0  0  0
    4.5533    3.0058    0.7163 H   0  0  0  0  0  0  0  0  0  0  0  0
    6.7054    0.0365   -0.4599 H   0  0  0  0  0  0  0  0  0  0  0  0
    3.8599    1.2308   -0.8379 H   0  0  0  0  0  0  0  0  0  0  0  0
    4.3439   -0.3878   -1.3107 H   0  0  0  0  0  0  0  0  0  0  0  0
    7.0515    3.2353   -6.2655 H   0  0  0  0  0  0  0  0  0  0  0  0
    6.8840    2.6322   -8.3819 H   0  0  0  0  0  0  0  0  0  0  0  0
    7.7611    2.6397  -10.6631 H   0  0  0  0  0  0  0  0  0  0  0  0
    7.7792    4.7188  -11.9912 H   0  0  0  0  0  0  0  0  0  0  0  0
    6.1785    6.8835   -8.6126 H   0  0  0  0  0  0  0  0  0  0  0  0
    6.3851    1.2234   -6.7461 H   0  0  0  0  0  0  0  0  0  0  0  0
    6.9195   -1.1868   -6.7930 H   0  0  0  0  0  0  0  0  0  0  0  0
    6.6335   -2.5765   -4.7644 H   0  0  0  0  0  0  0  0  0  0  0  0
    5.7631   -1.5858   -2.6715 H   0  0  0  0  0  0  0  0  0  0  0  0
  1  2  1  0  0  0  0
  1 30  1  0  0  0  0
  1 31  1  0  0  0  0
  1 32  1  0  0  0  0
  2  3  1  0  0  0  0
  2  4  2  0  0  0  0
  3 33  1  0  0  0  0
  3 34  1  0  0  0  0
  3 35  1  0  0  0  0
  4  5  1  0  0  0  0
  4 36  1  0  0  0  0
  5  6  1  0  0  0  0
  5 37  1  0  0  0  0
  5 38  1  0  0  0  0
  6  7  1  0  0  0  0
  6 29  1  0  0  0  0
  7  8  2  0  0  0  0
  7  9  1  0  0  0  0
  9 10  2  0  0  0  0
  9 24  1  0  0  0  0
 10 11  1  0  0  0  0
 11 12  1  0  0  0  0
 11 39  1  0  0  0  0
 12 13  2  0  0  0  0
 12 14  1  0  0  0  0
 14 15  1  0  0  0  0
 14 23  2  0  0  0  0
 15 16  2  0  0  0  0
 15 40  1  0  0  0  0
 16 17  1  0  0  0  0
 16 41  1  0  0  0  0
 17 18  2  0  0  0  0
 17 42  1  0  0  0  0
 18 19  1  0  0  0  0
 18 23  1  0  0  0  0
 19 20  1  0  0  0  0
 19 21  1  0  0  0  0
 19 22  1  0  0  0  0
 23 43  1  0  0  0  0
 24 25  1  0  0  0  0
 24 29  2  0  0  0  0
 25 26  2  0  0  0  0
 25 44  1  0  0  0  0
 26 27  1  0  0  0  0
 26 45  1  0  0  0  0
 27 28  2  0  0  0  0
 27 46  1  0  0  0  0
 28 29  1  0  0  0  0
 28 47  1  0  0  0  0
M  END
>  <Line_Number>
157


> <IC50>
65800

$$$$
