CHEMBL4277785
 OpenBabel09092522103D

 48 50  0  0  0  0  0  0  0  0999 V2000
    3.0331   -0.6822   -0.5163 C   0  0  0  0  0  0  0  0  0  0  0  0
    2.8562   -0.9011    0.8801 O   0  0  0  0  0  0  0  0  0  0  0  0
    3.3666    0.0635    1.7052 C   0  0  0  0  0  0  0  0  0  0  0  0
    3.7659   -0.3862    2.9673 C   0  0  0  0  0  0  0  0  0  0  0  0
    4.3059    0.5044    3.9044 C   0  0  0  0  0  0  0  0  0  0  0  0
    4.4261    1.8649    3.5975 C   0  0  0  0  0  0  0  0  0  0  0  0
    5.0922    2.7760    4.5712 C   0  0  0  0  0  0  0  0  0  0  0  0
    5.9391    2.3142    5.3258 O   0  0  0  0  0  0  0  0  0  0  0  0
    4.7045    4.1103    4.4991 N   0  0  0  0  0  0  0  0  0  0  0  0
    5.3497    5.0439    5.2493 N   0  0  0  0  0  0  0  0  0  0  0  0
    5.3527    6.2837    4.8687 C   0  0  0  0  0  0  0  0  0  0  0  0
    6.0673    7.3624    5.7054 C   0  0  0  0  0  0  0  0  0  0  0  0
    6.5562    7.1958    6.8028 O   0  0  0  0  0  0  0  0  0  0  0  0
    5.9883    8.5266    4.9562 N   0  0  0  0  0  0  0  0  0  0  0  0
    6.4578    9.8118    5.4211 C   0  0  0  0  0  0  0  0  0  0  0  0
    7.8300   10.1094    4.8824 C   0  0  0  0  0  0  0  0  0  0  0  0
    8.3197   11.3167    4.5270 C   0  0  0  0  0  0  0  0  0  0  0  0
    7.5565   12.6123    4.5846 C   0  0  0  0  0  0  0  0  0  0  0  0
    9.7504   11.4754    4.0750 C   0  0  0  0  0  0  0  0  0  0  0  0
    5.2683    8.3068    3.7719 C   0  0  0  0  0  0  0  0  0  0  0  0
    4.9622    9.2288    2.7841 C   0  0  0  0  0  0  0  0  0  0  0  0
    4.2101    8.7991    1.6876 C   0  0  0  0  0  0  0  0  0  0  0  0
    3.7819    7.4675    1.5914 C   0  0  0  0  0  0  0  0  0  0  0  0
    4.1018    6.5416    2.5887 C   0  0  0  0  0  0  0  0  0  0  0  0
    4.8442    6.9759    3.6748 C   0  0  0  0  0  0  0  0  0  0  0  0
    4.0184    2.3172    2.3392 C   0  0  0  0  0  0  0  0  0  0  0  0
    3.4894    1.4220    1.4103 C   0  0  0  0  0  0  0  0  0  0  0  0
    3.1024    1.9220    0.2282 F   0  0  0  0  0  0  0  0  0  0  0  0
    2.7076   -1.5880   -1.0374 H   0  0  0  0  0  0  0  0  0  0  0  0
    4.0884   -0.5169   -0.7594 H   0  0  0  0  0  0  0  0  0  0  0  0
    2.4071    0.1368   -0.8805 H   0  0  0  0  0  0  0  0  0  0  0  0
    3.6845   -1.4424    3.2144 H   0  0  0  0  0  0  0  0  0  0  0  0
    4.6513    0.1288    4.8670 H   0  0  0  0  0  0  0  0  0  0  0  0
    3.7988    4.3493    4.1182 H   0  0  0  0  0  0  0  0  0  0  0  0
    6.5165    9.7845    6.5144 H   0  0  0  0  0  0  0  0  0  0  0  0
    5.7176   10.5680    5.1493 H   0  0  0  0  0  0  0  0  0  0  0  0
    8.4988    9.2494    4.8358 H   0  0  0  0  0  0  0  0  0  0  0  0
    6.5295   12.4986    4.9368 H   0  0  0  0  0  0  0  0  0  0  0  0
    7.5146   13.0687    3.5901 H   0  0  0  0  0  0  0  0  0  0  0  0
    8.0551   13.3120    5.2640 H   0  0  0  0  0  0  0  0  0  0  0  0
   10.2932   10.5250    4.0593 H   0  0  0  0  0  0  0  0  0  0  0  0
   10.2859   12.1506    4.7519 H   0  0  0  0  0  0  0  0  0  0  0  0
    9.7868   11.8997    3.0663 H   0  0  0  0  0  0  0  0  0  0  0  0
    5.2937   10.2601    2.8402 H   0  0  0  0  0  0  0  0  0  0  0  0
    3.9556    9.5026    0.8974 H   0  0  0  0  0  0  0  0  0  0  0  0
    3.1986    7.1515    0.7278 H   0  0  0  0  0  0  0  0  0  0  0  0
    3.7608    5.5256    2.4769 H   0  0  0  0  0  0  0  0  0  0  0  0
    4.1457    3.3467    2.0311 H   0  0  0  0  0  0  0  0  0  0  0  0
  1  2  1  0  0  0  0
  1 29  1  0  0  0  0
  1 30  1  0  0  0  0
  1 31  1  0  0  0  0
  2  3  1  0  0  0  0
  3  4  1  0  0  0  0
  3 27  2  0  0  0  0
  4  5  2  0  0  0  0
  4 32  1  0  0  0  0
  5  6  1  0  0  0  0
  5 33  1  0  0  0  0
  6  7  1  0  0  0  0
  6 26  2  0  0  0  0
  7  8  2  0  0  0  0
  7  9  1  0  0  0  0
  9 10  1  0  0  0  0
  9 34  1  0  0  0  0
 10 11  2  0  0  0  0
 11 12  1  0  0  0  0
 11 25  1  0  0  0  0
 12 13  2  0  0  0  0
 12 14  1  0  0  0  0
 14 15  1  0  0  0  0
 14 20  1  0  0  0  0
 15 16  1  0  0  0  0
 15 35  1  0  0  0  0
 15 36  1  0  0  0  0
 16 17  2  0  0  0  0
 16 37  1  0  0  0  0
 17 18  1  0  0  0  0
 17 19  1  0  0  0  0
 18 38  1  0  0  0  0
 18 39  1  0  0  0  0
 18 40  1  0  0  0  0
 19 41  1  0  0  0  0
 19 42  1  0  0  0  0
 19 43  1  0  0  0  0
 20 21  1  0  0  0  0
 20 25  2  0  0  0  0
 21 22  2  0  0  0  0
 21 44  1  0  0  0  0
 22 23  1  0  0  0  0
 22 45  1  0  0  0  0
 23 24  2  0  0  0  0
 23 46  1  0  0  0  0
 24 25  1  0  0  0  0
 24 47  1  0  0  0  0
 26 27  1  0  0  0  0
 26 48  1  0  0  0  0
 27 28  1  0  0  0  0
M  END
>  <Line_Number>
158


> <IC50>
3820

$$$$
