CHEMBL4283043
 OpenBabel09092522103D

 47 49  0  0  0  0  0  0  0  0999 V2000
    1.2462    0.0080    1.7212 C   0  0  0  0  0  0  0  0  0  0  0  0
    2.3013    0.4570    0.7475 C   0  0  0  0  0  0  0  0  0  0  0  0
    1.9221    0.4692   -0.7091 C   0  0  0  0  0  0  0  0  0  0  0  0
    3.5186    0.8451    1.1849 C   0  0  0  0  0  0  0  0  0  0  0  0
    4.6523    1.3245    0.3212 C   0  0  0  0  0  0  0  0  0  0  0  0
    5.0889    2.6369    0.7401 N   0  0  0  0  0  0  0  0  0  0  0  0
    4.5182    3.8141    0.2801 C   0  0  0  0  0  0  0  0  0  0  0  0
    3.5820    3.9681   -0.4748 O   0  0  0  0  0  0  0  0  0  0  0  0
    5.3684    4.9499    0.8912 C   0  0  0  0  0  0  0  0  0  0  0  0
    4.9957    6.1889    0.7966 N   0  0  0  0  0  0  0  0  0  0  0  0
    5.6926    7.1661    1.4386 N   0  0  0  0  0  0  0  0  0  0  0  0
    5.2986    8.4930    1.3457 C   0  0  0  0  0  0  0  0  0  0  0  0
    4.3250    8.9144    0.7263 O   0  0  0  0  0  0  0  0  0  0  0  0
    6.1532    9.4566    2.0985 C   0  0  0  0  0  0  0  0  0  0  0  0
    7.5218    9.2292    2.2999 C   0  0  0  0  0  0  0  0  0  0  0  0
    8.3013   10.1664    2.9802 C   0  0  0  0  0  0  0  0  0  0  0  0
    7.7309   11.3559    3.4604 C   0  0  0  0  0  0  0  0  0  0  0  0
    8.5692   12.3880    4.1776 C   0  0  0  0  0  0  0  0  0  0  0  0
    9.8755   12.0247    4.3119 F   0  0  0  0  0  0  0  0  0  0  0  0
    8.5790   13.5889    3.5403 F   0  0  0  0  0  0  0  0  0  0  0  0
    8.1202   12.6332    5.4402 F   0  0  0  0  0  0  0  0  0  0  0  0
    6.3613   11.5846    3.2487 C   0  0  0  0  0  0  0  0  0  0  0  0
    5.5799   10.6450    2.5709 C   0  0  0  0  0  0  0  0  0  0  0  0
    6.5090    4.2838    1.5399 C   0  0  0  0  0  0  0  0  0  0  0  0
    7.6764    4.7732    2.1083 C   0  0  0  0  0  0  0  0  0  0  0  0
    8.5765    3.8586    2.6619 C   0  0  0  0  0  0  0  0  0  0  0  0
    8.3219    2.4818    2.6017 C   0  0  0  0  0  0  0  0  0  0  0  0
    7.1680    1.9948    1.9822 C   0  0  0  0  0  0  0  0  0  0  0  0
    6.2703    2.9085    1.4510 C   0  0  0  0  0  0  0  0  0  0  0  0
    0.3209   -0.2890    1.2157 H   0  0  0  0  0  0  0  0  0  0  0  0
    0.9934    0.8202    2.4102 H   0  0  0  0  0  0  0  0  0  0  0  0
    1.5910   -0.8558    2.2996 H   0  0  0  0  0  0  0  0  0  0  0  0
    0.8973    0.1215   -0.8714 H   0  0  0  0  0  0  0  0  0  0  0  0
    2.5804   -0.1925   -1.2829 H   0  0  0  0  0  0  0  0  0  0  0  0
    1.9888    1.4832   -1.1158 H   0  0  0  0  0  0  0  0  0  0  0  0
    3.7249    0.7948    2.2535 H   0  0  0  0  0  0  0  0  0  0  0  0
    4.3642    1.3882   -0.7328 H   0  0  0  0  0  0  0  0  0  0  0  0
    5.4760    0.6075    0.3799 H   0  0  0  0  0  0  0  0  0  0  0  0
    6.3172    6.9049    2.1855 H   0  0  0  0  0  0  0  0  0  0  0  0
    8.0091    8.3445    1.8988 H   0  0  0  0  0  0  0  0  0  0  0  0
    9.3662    9.9765    3.1174 H   0  0  0  0  0  0  0  0  0  0  0  0
    5.8992   12.5062    3.6033 H   0  0  0  0  0  0  0  0  0  0  0  0
    4.5199   10.8426    2.4038 H   0  0  0  0  0  0  0  0  0  0  0  0
    7.9388    5.8208    2.1158 H   0  0  0  0  0  0  0  0  0  0  0  0
    9.4924    4.2143    3.1301 H   0  0  0  0  0  0  0  0  0  0  0  0
    9.0396    1.7835    3.0289 H   0  0  0  0  0  0  0  0  0  0  0  0
    7.0067    0.9246    1.9238 H   0  0  0  0  0  0  0  0  0  0  0  0
  1  2  1  0  0  0  0
  1 30  1  0  0  0  0
  1 31  1  0  0  0  0
  1 32  1  0  0  0  0
  2  3  1  0  0  0  0
  2  4  2  0  0  0  0
  3 33  1  0  0  0  0
  3 34  1  0  0  0  0
  3 35  1  0  0  0  0
  4  5  1  0  0  0  0
  4 36  1  0  0  0  0
  5  6  1  0  0  0  0
  5 37  1  0  0  0  0
  5 38  1  0  0  0  0
  6  7  1  0  0  0  0
  6 29  1  0  0  0  0
  7  8  2  0  0  0  0
  7  9  1  0  0  0  0
  9 10  2  0  0  0  0
  9 24  1  0  0  0  0
 10 11  1  0  0  0  0
 11 12  1  0  0  0  0
 11 39  1  0  0  0  0
 12 13  2  0  0  0  0
 12 14  1  0  0  0  0
 14 15  1  0  0  0  0
 14 23  2  0  0  0  0
 15 16  2  0  0  0  0
 15 40  1  0  0  0  0
 16 17  1  0  0  0  0
 16 41  1  0  0  0  0
 17 18  1  0  0  0  0
 17 22  2  0  0  0  0
 18 19  1  0  0  0  0
 18 20  1  0  0  0  0
 18 21  1  0  0  0  0
 22 23  1  0  0  0  0
 22 42  1  0  0  0  0
 23 43  1  0  0  0  0
 24 25  1  0  0  0  0
 24 29  2  0  0  0  0
 25 26  2  0  0  0  0
 25 44  1  0  0  0  0
 26 27  1  0  0  0  0
 26 45  1  0  0  0  0
 27 28  2  0  0  0  0
 27 46  1  0  0  0  0
 28 29  1  0  0  0  0
 28 47  1  0  0  0  0
M  END
>  <Line_Number>
163


> <IC50>
44100

$$$$
