CHEMBL4289384
 OpenBabel09092522103D

 47 49  0  0  0  0  0  0  0  0999 V2000
    0.8892    0.2657    0.5576 C   0  0  0  0  0  0  0  0  0  0  0  0
    2.3306    0.6634    0.3993 C   0  0  0  0  0  0  0  0  0  0  0  0
    2.6471    1.6717   -0.6713 C   0  0  0  0  0  0  0  0  0  0  0  0
    3.2794    0.1410    1.2062 C   0  0  0  0  0  0  0  0  0  0  0  0
    4.7478    0.4732    1.1672 C   0  0  0  0  0  0  0  0  0  0  0  0
    5.1556    0.9995    2.4465 N   0  0  0  0  0  0  0  0  0  0  0  0
    5.0918    2.3409    2.7660 C   0  0  0  0  0  0  0  0  0  0  0  0
    4.7224    3.2806    2.0932 O   0  0  0  0  0  0  0  0  0  0  0  0
    5.5902    2.4440    4.2175 C   0  0  0  0  0  0  0  0  0  0  0  0
    5.5035    3.5615    4.8634 N   0  0  0  0  0  0  0  0  0  0  0  0
    5.9129    3.5992    6.1511 N   0  0  0  0  0  0  0  0  0  0  0  0
    5.3984    4.4506    7.1130 C   0  0  0  0  0  0  0  0  0  0  0  0
    5.9680    4.5235    8.2036 O   0  0  0  0  0  0  0  0  0  0  0  0
    4.1672    5.2602    6.8687 C   0  0  0  0  0  0  0  0  0  0  0  0
    3.1694    4.9050    5.9560 C   0  0  0  0  0  0  0  0  0  0  0  0
    2.0334    5.7045    5.7942 C   0  0  0  0  0  0  0  0  0  0  0  0
    1.8611    6.8600    6.5616 C   0  0  0  0  0  0  0  0  0  0  0  0
    0.6281    7.7000    6.4114 C   0  0  0  0  0  0  0  0  0  0  0  0
    2.8489    7.2128    7.4877 C   0  0  0  0  0  0  0  0  0  0  0  0
    3.9904    6.4187    7.6403 C   0  0  0  0  0  0  0  0  0  0  0  0
    5.9958    1.0810    4.5995 C   0  0  0  0  0  0  0  0  0  0  0  0
    6.5456    0.5646    5.7587 C   0  0  0  0  0  0  0  0  0  0  0  0
    6.7921   -0.8099    5.8114 C   0  0  0  0  0  0  0  0  0  0  0  0
    6.4724   -1.6401    4.7260 C   0  0  0  0  0  0  0  0  0  0  0  0
    5.9092   -1.1106    3.5631 C   0  0  0  0  0  0  0  0  0  0  0  0
    5.6849    0.2559    3.5098 C   0  0  0  0  0  0  0  0  0  0  0  0
    0.2422    0.7801   -0.1624 H   0  0  0  0  0  0  0  0  0  0  0  0
    0.5273    0.5225    1.5584 H   0  0  0  0  0  0  0  0  0  0  0  0
    0.7624   -0.8100    0.3970 H   0  0  0  0  0  0  0  0  0  0  0  0
    1.7523    1.9888   -1.2160 H   0  0  0  0  0  0  0  0  0  0  0  0
    3.3383    1.2449   -1.4057 H   0  0  0  0  0  0  0  0  0  0  0  0
    3.0952    2.5700   -0.2351 H   0  0  0  0  0  0  0  0  0  0  0  0
    2.9801   -0.5870    1.9560 H   0  0  0  0  0  0  0  0  0  0  0  0
    4.9721    1.2277    0.4080 H   0  0  0  0  0  0  0  0  0  0  0  0
    5.3316   -0.4168    0.9158 H   0  0  0  0  0  0  0  0  0  0  0  0
    6.8451    3.2604    6.3600 H   0  0  0  0  0  0  0  0  0  0  0  0
    3.2434    4.0031    5.3591 H   0  0  0  0  0  0  0  0  0  0  0  0
    1.2836    5.4095    5.0633 H   0  0  0  0  0  0  0  0  0  0  0  0
   -0.0366    7.2988    5.6387 H   0  0  0  0  0  0  0  0  0  0  0  0
    0.8956    8.7219    6.1254 H   0  0  0  0  0  0  0  0  0  0  0  0
    0.0706    7.7203    7.3533 H   0  0  0  0  0  0  0  0  0  0  0  0
    2.7368    8.1057    8.0983 H   0  0  0  0  0  0  0  0  0  0  0  0
    4.7452    6.7083    8.3689 H   0  0  0  0  0  0  0  0  0  0  0  0
    6.7837    1.1777    6.6193 H   0  0  0  0  0  0  0  0  0  0  0  0
    7.2316   -1.2454    6.7081 H   0  0  0  0  0  0  0  0  0  0  0  0
    6.6654   -2.7112    4.7931 H   0  0  0  0  0  0  0  0  0  0  0  0
    5.6603   -1.7672    2.7376 H   0  0  0  0  0  0  0  0  0  0  0  0
  1  2  1  0  0  0  0
  1 27  1  0  0  0  0
  1 28  1  0  0  0  0
  1 29  1  0  0  0  0
  2  3  1  0  0  0  0
  2  4  2  0  0  0  0
  3 30  1  0  0  0  0
  3 31  1  0  0  0  0
  3 32  1  0  0  0  0
  4  5  1  0  0  0  0
  4 33  1  0  0  0  0
  5  6  1  0  0  0  0
  5 34  1  0  0  0  0
  5 35  1  0  0  0  0
  6  7  1  0  0  0  0
  6 26  1  0  0  0  0
  7  8  2  0  0  0  0
  7  9  1  0  0  0  0
  9 10  2  0  0  0  0
  9 21  1  0  0  0  0
 10 11  1  0  0  0  0
 11 12  1  0  0  0  0
 11 36  1  0  0  0  0
 12 13  2  0  0  0  0
 12 14  1  0  0  0  0
 14 15  1  0  0  0  0
 14 20  2  0  0  0  0
 15 16  2  0  0  0  0
 15 37  1  0  0  0  0
 16 17  1  0  0  0  0
 16 38  1  0  0  0  0
 17 18  1  0  0  0  0
 17 19  2  0  0  0  0
 18 39  1  0  0  0  0
 18 40  1  0  0  0  0
 18 41  1  0  0  0  0
 19 20  1  0  0  0  0
 19 42  1  0  0  0  0
 20 43  1  0  0  0  0
 21 22  1  0  0  0  0
 21 26  2  0  0  0  0
 22 23  2  0  0  0  0
 22 44  1  0  0  0  0
 23 24  1  0  0  0  0
 23 45  1  0  0  0  0
 24 25  2  0  0  0  0
 24 46  1  0  0  0  0
 25 26  1  0  0  0  0
 25 47  1  0  0  0  0
M  END
>  <Line_Number>
165


> <IC50>
29900

$$$$
