136118944.0
 OpenBabel09092522103D

 26 28  0  0  0  0  0  0  0  0999 V2000
    2.2165   -0.0108   -0.0172 O   0  0  0  0  0  0  0  0  0  0  0  0
    0.8540   -0.0185    0.0014 C   0  0  0  0  0  0  0  0  0  0  0  0
    0.1373   -1.0737    0.5557 C   0  0  0  0  0  0  0  0  0  0  0  0
   -1.2618   -1.0322    0.5491 C   0  0  0  0  0  0  0  0  0  0  0  0
   -1.9447    0.0522   -0.0217 C   0  0  0  0  0  0  0  0  0  0  0  0
   -3.4087    0.0734   -0.0364 C   0  0  0  0  0  0  0  0  0  0  0  0
   -4.2175   -0.4792    0.8497 N   0  0  0  0  0  0  0  0  0  0  0  0
   -5.4938   -0.1849    0.4364 C   0  0  0  0  0  0  0  0  0  0  0  0
   -6.7274   -0.4964    1.0268 C   0  0  0  0  0  0  0  0  0  0  0  0
   -7.9053   -0.0862    0.3851 C   0  0  0  0  0  0  0  0  0  0  0  0
   -7.8479    0.6177   -0.8193 C   0  0  0  0  0  0  0  0  0  0  0  0
   -9.4598    1.1387   -1.6667 Br  0  0  0  0  0  0  0  0  0  0  0  0
   -6.6289    0.9500   -1.4223 C   0  0  0  0  0  0  0  0  0  0  0  0
   -5.4753    0.5309   -0.7540 C   0  0  0  0  0  0  0  0  0  0  0  0
   -4.1433    0.6776   -1.0325 N   0  0  0  0  0  0  0  0  0  0  0  0
   -1.1974    1.1086   -0.5652 C   0  0  0  0  0  0  0  0  0  0  0  0
    0.1979    1.0727   -0.5520 C   0  0  0  0  0  0  0  0  0  0  0  0
    2.5379   -0.8263    0.4019 H   0  0  0  0  0  0  0  0  0  0  0  0
    0.6403   -1.9282    0.9964 H   0  0  0  0  0  0  0  0  0  0  0  0
   -1.8241   -1.8552    0.9878 H   0  0  0  0  0  0  0  0  0  0  0  0
   -6.7599   -1.0440    1.9624 H   0  0  0  0  0  0  0  0  0  0  0  0
   -8.8641   -0.3263    0.8385 H   0  0  0  0  0  0  0  0  0  0  0  0
   -6.5809    1.4999   -2.3543 H   0  0  0  0  0  0  0  0  0  0  0  0
   -3.7565    1.1413   -1.8409 H   0  0  0  0  0  0  0  0  0  0  0  0
   -1.6860    1.9845   -0.9829 H   0  0  0  0  0  0  0  0  0  0  0  0
    0.7707    1.8981   -0.9658 H   0  0  0  0  0  0  0  0  0  0  0  0
  1  2  1  0  0  0  0
  1 18  1  0  0  0  0
  2  3  1  0  0  0  0
  2 17  2  0  0  0  0
  3  4  2  0  0  0  0
  3 19  1  0  0  0  0
  4  5  1  0  0  0  0
  4 20  1  0  0  0  0
  5  6  1  0  0  0  0
  5 16  2  0  0  0  0
  6  7  2  0  0  0  0
  6 15  1  0  0  0  0
  7  8  1  0  0  0  0
  8  9  1  0  0  0  0
  8 14  2  0  0  0  0
  9 10  2  0  0  0  0
  9 21  1  0  0  0  0
 10 11  1  0  0  0  0
 10 22  1  0  0  0  0
 11 12  1  0  0  0  0
 11 13  2  0  0  0  0
 13 14  1  0  0  0  0
 13 23  1  0  0  0  0
 14 15  1  0  0  0  0
 15 24  1  0  0  0  0
 16 17  1  0  0  0  0
 16 25  1  0  0  0  0
 17 26  1  0  0  0  0
M  END
>  <Line_Number>
167


> <IC50>
8300

$$$$
