14368879.0
 OpenBabel09092522103D

 26 26  0  0  0  0  0  0  0  0999 V2000
    0.9391    0.1029   -0.0613 C   0  0  0  0  0  0  0  0  0  0  0  0
    2.4600    0.0538   -0.0897 C   0  0  0  0  0  0  0  0  0  0  0  0
    2.9658   -1.3064    0.3867 C   0  0  0  0  0  0  0  0  0  0  0  0
    4.4948   -1.4006    0.3667 C   0  0  0  0  0  0  0  0  0  0  0  0
    4.9876   -2.7469    0.8469 C   0  0  0  0  0  0  0  0  0  0  0  0
    4.6163   -3.9278    0.1767 C   0  0  0  0  0  0  0  0  0  0  0  0
    5.0316   -5.1804    0.6393 C   0  0  0  0  0  0  0  0  0  0  0  0
    5.8397   -5.2508    1.7653 C   0  0  0  0  0  0  0  0  0  0  0  0
    6.2669   -6.4467    2.2738 O   0  0  0  0  0  0  0  0  0  0  0  0
    6.2401   -4.0879    2.4159 C   0  0  0  0  0  0  0  0  0  0  0  0
    7.0477   -4.1680    3.5149 O   0  0  0  0  0  0  0  0  0  0  0  0
    5.8235   -2.8397    1.9695 C   0  0  0  0  0  0  0  0  0  0  0  0
    0.5807    1.0768   -0.4090 H   0  0  0  0  0  0  0  0  0  0  0  0
    0.5618   -0.0561    0.9542 H   0  0  0  0  0  0  0  0  0  0  0  0
    0.5107   -0.6677   -0.7096 H   0  0  0  0  0  0  0  0  0  0  0  0
    2.8612    0.8493    0.5480 H   0  0  0  0  0  0  0  0  0  0  0  0
    2.8087    0.2455   -1.1110 H   0  0  0  0  0  0  0  0  0  0  0  0
    2.5318   -2.0851   -0.2541 H   0  0  0  0  0  0  0  0  0  0  0  0
    2.5999   -1.4992    1.4033 H   0  0  0  0  0  0  0  0  0  0  0  0
    4.9114   -0.6046    0.9992 H   0  0  0  0  0  0  0  0  0  0  0  0
    4.8787   -1.2260   -0.6461 H   0  0  0  0  0  0  0  0  0  0  0  0
    3.9884   -3.8771   -0.7105 H   0  0  0  0  0  0  0  0  0  0  0  0
    4.7131   -6.0736    0.1118 H   0  0  0  0  0  0  0  0  0  0  0  0
    5.8625   -7.1579    1.7469 H   0  0  0  0  0  0  0  0  0  0  0  0
    7.2019   -5.1264    3.6322 H   0  0  0  0  0  0  0  0  0  0  0  0
    6.1479   -1.9505    2.5025 H   0  0  0  0  0  0  0  0  0  0  0  0
  1  2  1  0  0  0  0
  1 13  1  0  0  0  0
  1 14  1  0  0  0  0
  1 15  1  0  0  0  0
  2  3  1  0  0  0  0
  2 16  1  0  0  0  0
  2 17  1  0  0  0  0
  3  4  1  0  0  0  0
  3 18  1  0  0  0  0
  3 19  1  0  0  0  0
  4  5  1  0  0  0  0
  4 20  1  0  0  0  0
  4 21  1  0  0  0  0
  5  6  1  0  0  0  0
  5 12  2  0  0  0  0
  6  7  2  0  0  0  0
  6 22  1  0  0  0  0
  7  8  1  0  0  0  0
  7 23  1  0  0  0  0
  8  9  1  0  0  0  0
  8 10  2  0  0  0  0
  9 24  1  0  0  0  0
 10 11  1  0  0  0  0
 10 12  1  0  0  0  0
 11 25  1  0  0  0  0
 12 26  1  0  0  0  0
M  END
>  <Line_Number>
16


> <IC50>
23000

$$$$
