17522609.0
 OpenBabel09092522103D

 42 44  0  0  0  0  0  0  0  0999 V2000
    1.5831   -0.7343   -0.7147 C   0  0  0  0  0  0  0  0  0  0  0  0
    2.3512    0.1066    0.1369 O   0  0  0  0  0  0  0  0  0  0  0  0
    3.0661   -0.5074    1.1280 C   0  0  0  0  0  0  0  0  0  0  0  0
    3.0646   -1.8688    1.4272 C   0  0  0  0  0  0  0  0  0  0  0  0
    3.8650   -2.3692    2.4674 C   0  0  0  0  0  0  0  0  0  0  0  0
    4.6682   -1.5187    3.2390 C   0  0  0  0  0  0  0  0  0  0  0  0
    5.4709   -2.0708    4.3499 C   0  0  0  0  0  0  0  0  0  0  0  0
    5.9949   -3.2885    4.4050 N   0  0  0  0  0  0  0  0  0  0  0  0
    6.6590   -3.4761    5.6279 C   0  0  0  0  0  0  0  0  0  0  0  0
    7.3481   -4.7167    6.0218 C   0  0  0  0  0  0  0  0  0  0  0  0
    7.8957   -4.8331    7.1128 O   0  0  0  0  0  0  0  0  0  0  0  0
    7.3252   -5.7319    5.0877 N   0  0  0  0  0  0  0  0  0  0  0  0
    7.9896   -7.0101    5.3351 C   0  0  0  0  0  0  0  0  0  0  0  0
    9.4435   -6.9828    4.8425 C   0  0  0  0  0  0  0  0  0  0  0  0
   10.1323   -8.3388    4.9988 C   0  0  0  0  0  0  0  0  0  0  0  0
    9.3376   -9.4524    4.3255 C   0  0  0  0  0  0  0  0  0  0  0  0
    7.9113   -9.5083    4.8613 C   0  0  0  0  0  0  0  0  0  0  0  0
    7.1981   -8.1649    4.7075 C   0  0  0  0  0  0  0  0  0  0  0  0
    6.6007   -2.3856    6.4766 C   0  0  0  0  0  0  0  0  0  0  0  0
    5.7193   -1.1149    5.7699 S   0  0  0  0  0  0  0  0  0  0  0  0
    4.6571   -0.1478    2.9260 C   0  0  0  0  0  0  0  0  0  0  0  0
    3.8622    0.3498    1.8858 C   0  0  0  0  0  0  0  0  0  0  0  0
    1.1798   -0.1149   -1.5217 H   0  0  0  0  0  0  0  0  0  0  0  0
    0.7394   -1.1694   -0.1695 H   0  0  0  0  0  0  0  0  0  0  0  0
    2.2008   -1.5124   -1.1754 H   0  0  0  0  0  0  0  0  0  0  0  0
    2.4511   -2.5712    0.8740 H   0  0  0  0  0  0  0  0  0  0  0  0
    3.8427   -3.4356    2.6818 H   0  0  0  0  0  0  0  0  0  0  0  0
    6.9745   -5.4952    4.1663 H   0  0  0  0  0  0  0  0  0  0  0  0
    8.0088   -7.1741    6.4201 H   0  0  0  0  0  0  0  0  0  0  0  0
   10.0120   -6.2253    5.3959 H   0  0  0  0  0  0  0  0  0  0  0  0
    9.4724   -6.6835    3.7872 H   0  0  0  0  0  0  0  0  0  0  0  0
   10.2519   -8.5705    6.0647 H   0  0  0  0  0  0  0  0  0  0  0  0
   11.1394   -8.2939    4.5689 H   0  0  0  0  0  0  0  0  0  0  0  0
    9.8343  -10.4153    4.4913 H   0  0  0  0  0  0  0  0  0  0  0  0
    9.3170   -9.2861    3.2415 H   0  0  0  0  0  0  0  0  0  0  0  0
    7.9321   -9.7962    5.9200 H   0  0  0  0  0  0  0  0  0  0  0  0
    7.3496  -10.2864    4.3322 H   0  0  0  0  0  0  0  0  0  0  0  0
    6.2078   -8.2283    5.1754 H   0  0  0  0  0  0  0  0  0  0  0  0
    7.0276   -7.9659    3.6423 H   0  0  0  0  0  0  0  0  0  0  0  0
    7.0241   -2.2955    7.4673 H   0  0  0  0  0  0  0  0  0  0  0  0
    5.2674    0.5612    3.4798 H   0  0  0  0  0  0  0  0  0  0  0  0
    3.8682    1.4164    1.6666 H   0  0  0  0  0  0  0  0  0  0  0  0
  1  2  1  0  0  0  0
  1 23  1  0  0  0  0
  1 24  1  0  0  0  0
  1 25  1  0  0  0  0
  2  3  1  0  0  0  0
  3  4  1  0  0  0  0
  3 22  2  0  0  0  0
  4  5  2  0  0  0  0
  4 26  1  0  0  0  0
  5  6  1  0  0  0  0
  5 27  1  0  0  0  0
  6  7  1  0  0  0  0
  6 21  2  0  0  0  0
  7  8  2  0  0  0  0
  7 20  1  0  0  0  0
  8  9  1  0  0  0  0
  9 10  1  0  0  0  0
  9 19  2  0  0  0  0
 10 11  2  0  0  0  0
 10 12  1  0  0  0  0
 12 13  1  0  0  0  0
 12 28  1  0  0  0  0
 13 14  1  0  0  0  0
 13 18  1  0  0  0  0
 13 29  1  0  0  0  0
 14 15  1  0  0  0  0
 14 30  1  0  0  0  0
 14 31  1  0  0  0  0
 15 16  1  0  0  0  0
 15 32  1  0  0  0  0
 15 33  1  0  0  0  0
 16 17  1  0  0  0  0
 16 34  1  0  0  0  0
 16 35  1  0  0  0  0
 17 18  1  0  0  0  0
 17 36  1  0  0  0  0
 17 37  1  0  0  0  0
 18 38  1  0  0  0  0
 18 39  1  0  0  0  0
 19 20  1  0  0  0  0
 19 40  1  0  0  0  0
 21 22  1  0  0  0  0
 21 41  1  0  0  0  0
 22 42  1  0  0  0  0
M  END
>  <Line_Number>
170


> <IC50>
1820

$$$$
