5355594.0
 OpenBabel09092522103D

 33 34  0  0  0  0  0  0  0  0999 V2000
    1.1234    0.0778   -0.0514 C   0  0  0  0  0  0  0  0  0  0  0  0
    2.5464    0.1235   -0.0503 O   0  0  0  0  0  0  0  0  0  0  0  0
    3.1411    0.6707    1.0542 C   0  0  0  0  0  0  0  0  0  0  0  0
    2.4752    1.1908    2.1604 C   0  0  0  0  0  0  0  0  0  0  0  0
    3.1978    1.7198    3.2361 C   0  0  0  0  0  0  0  0  0  0  0  0
    4.5970    1.7381    3.2275 C   0  0  0  0  0  0  0  0  0  0  0  0
    5.3772    2.3352    4.3242 C   0  0  0  0  0  0  0  0  0  0  0  0
    4.9772    2.3368    5.6067 C   0  0  0  0  0  0  0  0  0  0  0  0
    5.8032    2.9905    6.6589 C   0  0  0  0  0  0  0  0  0  0  0  0
    6.6638    3.8198    6.3887 O   0  0  0  0  0  0  0  0  0  0  0  0
    5.5071    2.6367    8.0753 C   0  0  0  0  0  0  0  0  0  0  0  0
    5.0219    1.3706    8.4374 C   0  0  0  0  0  0  0  0  0  0  0  0
    4.7662    1.0702    9.7788 C   0  0  0  0  0  0  0  0  0  0  0  0
    5.0043    2.0336   10.7535 C   0  0  0  0  0  0  0  0  0  0  0  0
    4.7673    1.7818   12.0721 O   0  0  0  0  0  0  0  0  0  0  0  0
    5.4993    3.2872   10.4112 C   0  0  0  0  0  0  0  0  0  0  0  0
    5.7565    3.5899    9.0720 C   0  0  0  0  0  0  0  0  0  0  0  0
    5.2617    1.2270    2.1057 C   0  0  0  0  0  0  0  0  0  0  0  0
    4.5369    0.6940    1.0310 C   0  0  0  0  0  0  0  0  0  0  0  0
    0.8032   -0.4697   -0.9427 H   0  0  0  0  0  0  0  0  0  0  0  0
    0.7018    1.0872   -0.1067 H   0  0  0  0  0  0  0  0  0  0  0  0
    0.7386   -0.4627    0.8201 H   0  0  0  0  0  0  0  0  0  0  0  0
    1.3932    1.2095    2.2228 H   0  0  0  0  0  0  0  0  0  0  0  0
    2.6396    2.1317    4.0723 H   0  0  0  0  0  0  0  0  0  0  0  0
    6.3287    2.7866    4.0494 H   0  0  0  0  0  0  0  0  0  0  0  0
    4.0459    1.8820    5.9168 H   0  0  0  0  0  0  0  0  0  0  0  0
    4.8586    0.5960    7.6927 H   0  0  0  0  0  0  0  0  0  0  0  0
    4.3940    0.0847   10.0413 H   0  0  0  0  0  0  0  0  0  0  0  0
    4.4279    0.8766   12.1654 H   0  0  0  0  0  0  0  0  0  0  0  0
    5.6896    4.0265   11.1847 H   0  0  0  0  0  0  0  0  0  0  0  0
    6.1489    4.5698    8.8085 H   0  0  0  0  0  0  0  0  0  0  0  0
    6.3483    1.2319    2.0541 H   0  0  0  0  0  0  0  0  0  0  0  0
    5.0675    0.2981    0.1694 H   0  0  0  0  0  0  0  0  0  0  0  0
  1  2  1  0  0  0  0
  1 20  1  0  0  0  0
  1 21  1  0  0  0  0
  1 22  1  0  0  0  0
  2  3  1  0  0  0  0
  3  4  1  0  0  0  0
  3 19  2  0  0  0  0
  4  5  2  0  0  0  0
  4 23  1  0  0  0  0
  5  6  1  0  0  0  0
  5 24  1  0  0  0  0
  6  7  1  0  0  0  0
  6 18  2  0  0  0  0
  7  8  2  0  0  0  0
  7 25  1  0  0  0  0
  8  9  1  0  0  0  0
  8 26  1  0  0  0  0
  9 10  2  0  0  0  0
  9 11  1  0  0  0  0
 11 12  1  0  0  0  0
 11 17  2  0  0  0  0
 12 13  2  0  0  0  0
 12 27  1  0  0  0  0
 13 14  1  0  0  0  0
 13 28  1  0  0  0  0
 14 15  1  0  0  0  0
 14 16  2  0  0  0  0
 15 29  1  0  0  0  0
 16 17  1  0  0  0  0
 16 30  1  0  0  0  0
 17 31  1  0  0  0  0
 18 19  1  0  0  0  0
 18 32  1  0  0  0  0
 19 33  1  0  0  0  0
M  END
>  <Line_Number>
173


> <IC50>
11510

$$$$
