168286052.0
 OpenBabel09092522103D

 67 73  0  0  0  0  0  0  0  0999 V2000
   -1.7104   -0.2428    2.4380 O   0  0  0  0  0  0  0  0  0  0  0  0
   -0.7045    0.4596    2.1916 N   0  3  0  0  0  0  0  0  0  0  0  0
   -0.6386    1.3807    1.3952 O   0  5  0  0  0  0  0  0  0  0  0  0
    0.5179    0.1018    2.9591 C   0  0  0  0  0  0  0  0  0  0  0  0
    0.4681   -0.8632    3.9667 C   0  0  0  0  0  0  0  0  0  0  0  0
    1.6166   -1.1633    4.6925 C   0  0  0  0  0  0  0  0  0  0  0  0
    2.8299   -0.5188    4.4048 C   0  0  0  0  0  0  0  0  0  0  0  0
    4.3048   -0.9354    5.3070 S   0  0  0  0  0  0  0  0  0  0  0  0
    5.1985   -1.5166    4.3306 O   0  0  0  0  0  0  0  0  0  0  0  0
    4.6212    0.2076    6.1315 O   0  0  0  0  0  0  0  0  0  0  0  0
    3.7996   -2.2166    6.3015 N   0  0  0  0  0  0  0  0  0  0  0  0
    4.6015   -2.2850    7.4778 C   0  0  0  0  0  0  0  0  0  0  0  0
    5.5663   -3.1669    7.4943 N   0  0  0  0  0  0  0  0  0  0  0  0
    6.1539   -3.2336    8.7260 N   0  0  0  0  0  0  0  0  0  0  0  0
    5.5797   -2.4495    9.6258 C   0  0  0  0  0  0  0  0  0  0  0  0
    6.0354   -2.4200   11.0240 C   0  0  0  0  0  0  0  0  0  0  0  0
    5.8737   -1.3514   11.9161 C   0  0  0  0  0  0  0  0  0  0  0  0
    6.6059   -1.3218   13.1156 C   0  0  0  0  0  0  0  0  0  0  0  0
    7.5134   -2.3499   13.4358 C   0  0  0  0  0  0  0  0  0  0  0  0
    8.4695   -2.1799   14.5974 C   0  0  0  0  0  0  0  0  0  0  0  0
    8.6431   -3.5354   15.2723 C   0  0  0  0  0  0  0  0  0  0  0  0
    9.8300   -4.2416   15.4346 C   0  0  0  0  0  0  0  0  0  0  0  0
    9.5143   -5.3932   16.0940 N   0  0  0  0  0  0  0  0  0  0  0  0
    8.2040   -5.6823   15.8251 C   0  0  0  0  0  0  0  0  0  0  0  0
    7.5140   -6.8868   15.6846 C   0  0  0  0  0  0  0  0  0  0  0  0
    6.1253   -6.7961   15.5854 C   0  0  0  0  0  0  0  0  0  0  0  0
    5.4820   -5.5727   15.7815 C   0  0  0  0  0  0  0  0  0  0  0  0
    3.5903   -5.5305   15.8412 Br  0  0  0  0  0  0  0  0  0  0  0  0
    6.1988   -4.3707   15.8722 C   0  0  0  0  0  0  0  0  0  0  0  0
    7.5979   -4.4320   15.7318 C   0  0  0  0  0  0  0  0  0  0  0  0
    9.7687   -1.5556   14.0775 C   0  0  0  0  0  0  0  0  0  0  0  0
   10.6529   -0.9613   14.9749 C   0  0  0  0  0  0  0  0  0  0  0  0
   11.8461   -0.8756   14.3205 N   0  0  0  0  0  0  0  0  0  0  0  0
   11.5450   -0.5723   13.0190 C   0  0  0  0  0  0  0  0  0  0  0  0
   12.2610    0.1885   12.0928 C   0  0  0  0  0  0  0  0  0  0  0  0
   11.7787    0.2067   10.7907 C   0  0  0  0  0  0  0  0  0  0  0  0
   10.7184   -0.6226   10.4349 C   0  0  0  0  0  0  0  0  0  0  0  0
   10.2085   -0.6923    8.6103 Br  0  0  0  0  0  0  0  0  0  0  0  0
   10.0051   -1.3752   11.3924 C   0  0  0  0  0  0  0  0  0  0  0  0
   10.3473   -1.2516   12.7613 C   0  0  0  0  0  0  0  0  0  0  0  0
    7.5419   -3.4823   12.6136 C   0  0  0  0  0  0  0  0  0  0  0  0
    6.8053   -3.5169   11.4394 C   0  0  0  0  0  0  0  0  0  0  0  0
    4.2866   -1.5186    8.9757 S   0  0  0  0  0  0  0  0  0  0  0  0
    2.8717    0.4110    3.3576 C   0  0  0  0  0  0  0  0  0  0  0  0
    4.1094    1.0568    2.9474 N   0  3  0  0  0  0  0  0  0  0  0  0
    4.6791    1.7695    3.7763 O   0  0  0  0  0  0  0  0  0  0  0  0
    4.4332    0.9192    1.7609 O   0  5  0  0  0  0  0  0  0  0  0  0
    1.7197    0.7355    2.6243 C   0  0  0  0  0  0  0  0  0  0  0  0
   -0.4687   -1.3690    4.2087 H   0  0  0  0  0  0  0  0  0  0  0  0
    1.5424   -1.9133    5.4771 H   0  0  0  0  0  0  0  0  0  0  0  0
    4.0877   -3.0552    5.7868 H   0  0  0  0  0  0  0  0  0  0  0  0
    5.2441   -0.4972   11.6789 H   0  0  0  0  0  0  0  0  0  0  0  0
    6.5128   -0.4606   13.7766 H   0  0  0  0  0  0  0  0  0  0  0  0
    8.0369   -1.5005   15.3448 H   0  0  0  0  0  0  0  0  0  0  0  0
   10.8539   -4.0093   15.1738 H   0  0  0  0  0  0  0  0  0  0  0  0
   10.0984   -5.8798   16.7611 H   0  0  0  0  0  0  0  0  0  0  0  0
    8.0325   -7.8327   15.5660 H   0  0  0  0  0  0  0  0  0  0  0  0
    5.5504   -7.6939   15.3702 H   0  0  0  0  0  0  0  0  0  0  0  0
    5.6858   -3.4189   15.9525 H   0  0  0  0  0  0  0  0  0  0  0  0
   10.5833   -0.7704   16.0353 H   0  0  0  0  0  0  0  0  0  0  0  0
   12.6310   -1.4701   14.5523 H   0  0  0  0  0  0  0  0  0  0  0  0
   13.1156    0.7872   12.3915 H   0  0  0  0  0  0  0  0  0  0  0  0
   12.2554    0.8557   10.0599 H   0  0  0  0  0  0  0  0  0  0  0  0
    9.1678   -1.9763   11.0629 H   0  0  0  0  0  0  0  0  0  0  0  0
    8.1904   -4.3271   12.8363 H   0  0  0  0  0  0  0  0  0  0  0  0
    6.9112   -4.3908   10.7987 H   0  0  0  0  0  0  0  0  0  0  0  0
    1.7652    1.4828    1.8315 H   0  0  0  0  0  0  0  0  0  0  0  0
  1  2  2  0  0  0  0
  2  3  1  0  0  0  0
  2  4  1  0  0  0  0
  4  5  1  0  0  0  0
  4 48  2  0  0  0  0
  5  6  2  0  0  0  0
  5 49  1  0  0  0  0
  6  7  1  0  0  0  0
  6 50  1  0  0  0  0
  7  8  1  0  0  0  0
  7 44  2  0  0  0  0
  8  9  2  0  0  0  0
  8 10  2  0  0  0  0
  8 11  1  0  0  0  0
 11 12  1  0  0  0  0
 11 51  1  0  0  0  0
 12 13  2  0  0  0  0
 12 43  1  0  0  0  0
 13 14  1  0  0  0  0
 14 15  2  0  0  0  0
 15 16  1  0  0  0  0
 15 43  1  0  0  0  0
 16 17  1  0  0  0  0
 16 42  2  0  0  0  0
 17 18  2  0  0  0  0
 17 52  1  0  0  0  0
 18 19  1  0  0  0  0
 18 53  1  0  0  0  0
 19 20  1  0  0  0  0
 19 41  2  0  0  0  0
 20 21  1  0  0  0  0
 20 31  1  0  0  0  0
 20 54  1  0  0  0  0
 21 22  2  0  0  0  0
 21 30  1  0  0  0  0
 22 23  1  0  0  0  0
 22 55  1  0  0  0  0
 23 24  1  0  0  0  0
 23 56  1  0  0  0  0
 24 25  1  0  0  0  0
 24 30  2  0  0  0  0
 25 26  2  0  0  0  0
 25 57  1  0  0  0  0
 26 27  1  0  0  0  0
 26 58  1  0  0  0  0
 27 28  1  0  0  0  0
 27 29  2  0  0  0  0
 29 30  1  0  0  0  0
 29 59  1  0  0  0  0
 31 32  2  0  0  0  0
 31 40  1  0  0  0  0
 32 33  1  0  0  0  0
 32 60  1  0  0  0  0
 33 34  1  0  0  0  0
 33 61  1  0  0  0  0
 34 35  1  0  0  0  0
 34 40  2  0  0  0  0
 35 36  2  0  0  0  0
 35 62  1  0  0  0  0
 36 37  1  0  0  0  0
 36 63  1  0  0  0  0
 37 38  1  0  0  0  0
 37 39  2  0  0  0  0
 39 40  1  0  0  0  0
 39 64  1  0  0  0  0
 41 42  1  0  0  0  0
 41 65  1  0  0  0  0
 42 66  1  0  0  0  0
 44 45  1  0  0  0  0
 44 48  1  0  0  0  0
 45 46  2  0  0  0  0
 45 47  1  0  0  0  0
 48 67  1  0  0  0  0
M  CHG  4   2   1   3  -1  45   1  47  -1
M  END
>  <Line_Number>
174


> <IC50>
500

$$$$
