386836
 OpenBabel09092522103D

 78 83  0  0  0  0  0  0  0  0999 V2000
    1.6433   -2.3174   -1.6091 N   0  0  0  0  0  0  0  0  0  0  0  0
    2.9957   -2.4127   -1.1775 N   0  0  0  0  0  0  0  0  0  0  0  0
    3.7665   -3.5733   -1.4771 C   0  0  0  0  0  0  0  0  0  0  0  0
    3.3065   -4.5315   -2.0961 O   0  0  0  0  0  0  0  0  0  0  0  0
    5.1667   -3.5957   -0.9390 C   0  0  0  0  0  0  0  0  0  0  0  0
    6.0061   -4.6560   -1.0659 C   0  0  0  0  0  0  0  0  0  0  0  0
    7.2675   -4.7049   -0.6107 N   0  0  0  0  0  0  0  0  0  0  0  0
    8.1403   -5.8465   -0.7503 C   0  0  0  0  0  0  0  0  0  0  0  0
    8.3212   -7.3399   -0.8817 C   0  0  0  0  0  0  0  0  0  0  0  0
    8.8670   -6.6240    0.3485 C   0  0  0  0  0  0  0  0  0  0  0  0
    7.8149   -3.5495    0.0765 C   0  0  0  0  0  0  0  0  0  0  0  0
    9.1441   -3.4366    0.5223 C   0  0  0  0  0  0  0  0  0  0  0  0
    9.6835   -2.2776    1.1425 C   0  0  0  0  0  0  0  0  0  0  0  0
   11.0288   -2.2206    1.4717 N   0  0  0  0  0  0  0  0  0  0  0  0
   11.5578   -1.3898    2.5652 C   0  0  0  0  0  0  0  0  0  0  0  0
   12.6983   -0.4824    2.0459 C   0  0  0  0  0  0  0  0  0  0  0  0
   13.8052   -1.1804    1.3258 N   0  0  0  0  0  0  0  0  0  0  0  0
   14.5835   -2.0625    2.2212 C   0  0  0  0  0  0  0  0  0  0  0  0
   15.2178   -1.2928    3.3713 C   0  0  0  0  0  0  0  0  0  0  0  0
   14.9388   -1.6131    4.5225 O   0  0  0  0  0  0  0  0  0  0  0  0
   16.0588   -0.2630    2.9751 N   0  0  0  0  0  0  0  0  0  0  0  0
   16.7716    0.5670    3.8660 C   0  0  0  0  0  0  0  0  0  0  0  0
   16.9890    0.2017    5.1964 C   0  0  0  0  0  0  0  0  0  0  0  0
   17.5594    1.0885    6.1045 C   0  0  0  0  0  0  0  0  0  0  0  0
   17.9528    2.3592    5.6986 C   0  0  0  0  0  0  0  0  0  0  0  0
   18.4361    3.2796    6.7667 C   0  0  0  0  0  0  0  0  0  0  0  0
   18.9655    2.8312    7.7809 O   0  0  0  0  0  0  0  0  0  0  0  0
   18.1835    4.7303    6.5976 C   0  0  0  0  0  0  0  0  0  0  0  0
   18.5464    5.6326    7.5200 C   0  0  0  0  0  0  0  0  0  0  0  0
   18.3909    7.0829    7.3251 C   0  0  0  0  0  0  0  0  0  0  0  0
   17.3889    7.6176    6.4967 C   0  0  0  0  0  0  0  0  0  0  0  0
   17.4172    8.9250    6.0838 C   0  0  0  0  0  0  0  0  0  0  0  0
   18.2916    9.7961    6.6614 C   0  0  0  0  0  0  0  0  0  0  0  0
   19.0876    9.3282    7.6855 C   0  0  0  0  0  0  0  0  0  0  0  0
   19.2523    7.9841    7.9058 C   0  0  0  0  0  0  0  0  0  0  0  0
   17.8471    2.7012    4.3400 C   0  0  0  0  0  0  0  0  0  0  0  0
   17.2631    1.8032    3.4283 C   0  0  0  0  0  0  0  0  0  0  0  0
   13.1868   -2.0060    0.2542 C   0  0  0  0  0  0  0  0  0  0  0  0
   12.0344   -2.9514    0.6904 C   0  0  0  0  0  0  0  0  0  0  0  0
    8.7912   -1.2167    1.3632 C   0  0  0  0  0  0  0  0  0  0  0  0
    9.2010   -0.0519    1.8875 F   0  0  0  0  0  0  0  0  0  0  0  0
    7.4664   -1.2868    0.9679 C   0  0  0  0  0  0  0  0  0  0  0  0
    7.0171   -2.4350    0.3117 C   0  0  0  0  0  0  0  0  0  0  0  0
    5.6708   -2.4613   -0.2047 C   0  0  0  0  0  0  0  0  0  0  0  0
    4.9040   -1.4365   -0.0577 O   0  0  0  0  0  0  0  0  0  0  0  0
    1.2298   -1.4342   -1.3156 H   0  0  0  0  0  0  0  0  0  0  0  0
    1.1068   -3.0894   -1.2032 H   0  0  0  0  0  0  0  0  0  0  0  0
    3.3814   -1.6266   -0.6457 H   0  0  0  0  0  0  0  0  0  0  0  0
    5.6768   -5.5131   -1.6145 H   0  0  0  0  0  0  0  0  0  0  0  0
    8.8345   -5.4485   -1.5137 H   0  0  0  0  0  0  0  0  0  0  0  0
    9.0328   -7.7178   -1.6050 H   0  0  0  0  0  0  0  0  0  0  0  0
    7.4298   -7.9443   -0.7600 H   0  0  0  0  0  0  0  0  0  0  0  0
    9.9243   -6.5320    0.5203 H   0  0  0  0  0  0  0  0  0  0  0  0
    8.6646   -6.7378    1.4299 H   0  0  0  0  0  0  0  0  0  0  0  0
    9.8077   -4.2772    0.3888 H   0  0  0  0  0  0  0  0  0  0  0  0
   11.9337   -2.0536    3.3524 H   0  0  0  0  0  0  0  0  0  0  0  0
   10.8037   -0.7707    3.0572 H   0  0  0  0  0  0  0  0  0  0  0  0
   13.0950    0.1149    2.8745 H   0  0  0  0  0  0  0  0  0  0  0  0
   12.2674    0.2490    1.3483 H   0  0  0  0  0  0  0  0  0  0  0  0
   15.3972   -2.5452    1.6654 H   0  0  0  0  0  0  0  0  0  0  0  0
   13.9743   -2.8611    2.6596 H   0  0  0  0  0  0  0  0  0  0  0  0
   15.9589    0.0366    2.0104 H   0  0  0  0  0  0  0  0  0  0  0  0
   16.7053   -0.7766    5.5725 H   0  0  0  0  0  0  0  0  0  0  0  0
   17.6649    0.7829    7.1473 H   0  0  0  0  0  0  0  0  0  0  0  0
   17.7197    5.0404    5.6716 H   0  0  0  0  0  0  0  0  0  0  0  0
   19.0359    5.3132    8.4381 H   0  0  0  0  0  0  0  0  0  0  0  0
   16.6325    6.9681    6.0622 H   0  0  0  0  0  0  0  0  0  0  0  0
   16.7023    9.2816    5.3470 H   0  0  0  0  0  0  0  0  0  0  0  0
   18.2840   10.8504    6.4027 H   0  0  0  0  0  0  0  0  0  0  0  0
   19.7332   10.0311    8.2106 H   0  0  0  0  0  0  0  0  0  0  0  0
   20.0170    7.6459    8.6013 H   0  0  0  0  0  0  0  0  0  0  0  0
   18.2069    3.6582    3.9688 H   0  0  0  0  0  0  0  0  0  0  0  0
   17.1685    2.1010    2.3839 H   0  0  0  0  0  0  0  0  0  0  0  0
   13.9594   -2.5974   -0.2525 H   0  0  0  0  0  0  0  0  0  0  0  0
   12.7941   -1.3185   -0.5061 H   0  0  0  0  0  0  0  0  0  0  0  0
   12.4149   -3.7830    1.2943 H   0  0  0  0  0  0  0  0  0  0  0  0
   11.6237   -3.3819   -0.2292 H   0  0  0  0  0  0  0  0  0  0  0  0
    6.8187   -0.4316    1.1378 H   0  0  0  0  0  0  0  0  0  0  0  0
  1  2  1  0  0  0  0
  1 46  1  0  0  0  0
  1 47  1  0  0  0  0
  2  3  1  0  0  0  0
  2 48  1  0  0  0  0
  3  4  2  0  0  0  0
  3  5  1  0  0  0  0
  5  6  2  0  0  0  0
  5 44  1  0  0  0  0
  6  7  1  0  0  0  0
  6 49  1  0  0  0  0
  7  8  1  0  0  0  0
  7 11  1  0  0  0  0
  8  9  1  0  0  0  0
  8 10  1  0  0  0  0
  8 50  1  0  0  0  0
  9 10  1  0  0  0  0
  9 51  1  0  0  0  0
  9 52  1  0  0  0  0
 10 53  1  0  0  0  0
 10 54  1  0  0  0  0
 11 12  1  0  0  0  0
 11 43  2  0  0  0  0
 12 13  2  0  0  0  0
 12 55  1  0  0  0  0
 13 14  1  0  0  0  0
 13 40  1  0  0  0  0
 14 15  1  0  0  0  0
 14 39  1  0  0  0  0
 15 16  1  0  0  0  0
 15 56  1  0  0  0  0
 15 57  1  0  0  0  0
 16 17  1  0  0  0  0
 16 58  1  0  0  0  0
 16 59  1  0  0  0  0
 17 18  1  0  0  0  0
 17 38  1  0  0  0  0
 18 19  1  0  0  0  0
 18 60  1  0  0  0  0
 18 61  1  0  0  0  0
 19 20  2  0  0  0  0
 19 21  1  0  0  0  0
 21 22  1  0  0  0  0
 21 62  1  0  0  0  0
 22 23  1  0  0  0  0
 22 37  2  0  0  0  0
 23 24  2  0  0  0  0
 23 63  1  0  0  0  0
 24 25  1  0  0  0  0
 24 64  1  0  0  0  0
 25 26  1  0  0  0  0
 25 36  2  0  0  0  0
 26 27  2  0  0  0  0
 26 28  1  0  0  0  0
 28 29  2  0  0  0  0
 28 65  1  0  0  0  0
 29 30  1  0  0  0  0
 29 66  1  0  0  0  0
 30 31  1  0  0  0  0
 30 35  2  0  0  0  0
 31 32  2  0  0  0  0
 31 67  1  0  0  0  0
 32 33  1  0  0  0  0
 32 68  1  0  0  0  0
 33 34  2  0  0  0  0
 33 69  1  0  0  0  0
 34 35  1  0  0  0  0
 34 70  1  0  0  0  0
 35 71  1  0  0  0  0
 36 37  1  0  0  0  0
 36 72  1  0  0  0  0
 37 73  1  0  0  0  0
 38 39  1  0  0  0  0
 38 74  1  0  0  0  0
 38 75  1  0  0  0  0
 39 76  1  0  0  0  0
 39 77  1  0  0  0  0
 40 41  1  0  0  0  0
 40 42  2  0  0  0  0
 42 43  1  0  0  0  0
 42 78  1  0  0  0  0
 43 44  1  0  0  0  0
 44 45  2  0  0  0  0
M  END
>  <Line_Number>
176


> <IC50>
812060

$$$$
