386837
 OpenBabel09092522103D

 90 95  0  0  0  0  0  0  0  0999 V2000
    5.2692   -2.4668   -5.0349 C   0  0  0  0  0  0  0  0  0  0  0  0
    6.3330   -3.4087   -4.9943 O   0  0  0  0  0  0  0  0  0  0  0  0
    6.5146   -4.0968   -3.8228 C   0  0  0  0  0  0  0  0  0  0  0  0
    5.4786   -4.3030   -2.8989 C   0  0  0  0  0  0  0  0  0  0  0  0
    5.6516   -5.1207   -1.7743 C   0  0  0  0  0  0  0  0  0  0  0  0
    4.5717   -5.3316   -0.7915 C   0  0  0  0  0  0  0  0  0  0  0  0
    3.2709   -5.3578   -1.1203 C   0  0  0  0  0  0  0  0  0  0  0  0
    2.2056   -5.6008   -0.1033 C   0  0  0  0  0  0  0  0  0  0  0  0
    2.3942   -5.4511    1.0969 O   0  0  0  0  0  0  0  0  0  0  0  0
    0.8681   -5.9891   -0.6332 C   0  0  0  0  0  0  0  0  0  0  0  0
    0.7672   -6.7468   -1.8026 C   0  0  0  0  0  0  0  0  0  0  0  0
   -0.4817   -7.0715   -2.3268 C   0  0  0  0  0  0  0  0  0  0  0  0
   -1.6533   -6.6731   -1.6856 C   0  0  0  0  0  0  0  0  0  0  0  0
   -2.9390   -6.9792   -2.1841 N   0  0  0  0  0  0  0  0  0  0  0  0
   -3.2150   -7.9231   -3.1656 C   0  0  0  0  0  0  0  0  0  0  0  0
   -2.3948   -8.6712   -3.6875 O   0  0  0  0  0  0  0  0  0  0  0  0
   -4.6852   -8.0219   -3.5857 C   0  0  0  0  0  0  0  0  0  0  0  0
   -4.9871   -7.1715   -4.7619 N   0  0  0  0  0  0  0  0  0  0  0  0
   -6.4112   -7.3384   -5.1564 C   0  0  0  0  0  0  0  0  0  0  0  0
   -6.7692   -8.7467   -5.6790 C   0  0  0  0  0  0  0  0  0  0  0  0
   -5.8699   -9.1259   -6.7790 N   0  0  0  0  0  0  0  0  0  0  0  0
   -6.3890   -9.4905   -8.0078 C   0  0  0  0  0  0  0  0  0  0  0  0
   -7.4939   -8.7960   -8.5130 C   0  0  0  0  0  0  0  0  0  0  0  0
   -8.1759   -9.2121   -9.6532 C   0  0  0  0  0  0  0  0  0  0  0  0
   -7.7726  -10.4086  -10.2749 C   0  0  0  0  0  0  0  0  0  0  0  0
   -6.5818  -11.0298   -9.9047 C   0  0  0  0  0  0  0  0  0  0  0  0
   -5.8896  -10.5487   -8.7893 C   0  0  0  0  0  0  0  0  0  0  0  0
   -4.7547  -11.1749   -8.4354 F   0  0  0  0  0  0  0  0  0  0  0  0
   -8.7027  -11.0139  -11.2816 C   0  0  0  0  0  0  0  0  0  0  0  0
   -8.4201  -12.0343  -11.8944 O   0  0  0  0  0  0  0  0  0  0  0  0
   -9.9965  -10.2844  -11.4959 C   0  0  0  0  0  0  0  0  0  0  0  0
  -11.2531  -10.7510  -10.8245 C   0  0  0  0  0  0  0  0  0  0  0  0
  -11.3237  -11.7899  -10.1767 O   0  0  0  0  0  0  0  0  0  0  0  0
  -12.3385   -9.8885  -11.0225 N   0  0  0  0  0  0  0  0  0  0  0  0
  -13.5619  -10.1046  -10.3609 N   0  0  0  0  0  0  0  0  0  0  0  0
   -9.7925   -8.9519  -11.4111 C   0  0  0  0  0  0  0  0  0  0  0  0
   -9.2222   -8.4285  -10.2303 N   0  0  0  0  0  0  0  0  0  0  0  0
  -10.1646   -7.7302   -9.3295 C   0  0  0  0  0  0  0  0  0  0  0  0
  -10.9438   -6.5347   -9.8143 C   0  0  0  0  0  0  0  0  0  0  0  0
   -9.8767   -6.3579   -8.7784 C   0  0  0  0  0  0  0  0  0  0  0  0
   -4.4298   -8.9426   -6.5706 C   0  0  0  0  0  0  0  0  0  0  0  0
   -4.1668   -7.5384   -5.9568 C   0  0  0  0  0  0  0  0  0  0  0  0
   -1.5556   -5.9283   -0.5041 C   0  0  0  0  0  0  0  0  0  0  0  0
   -0.2995   -5.6006    0.0309 C   0  0  0  0  0  0  0  0  0  0  0  0
    6.8920   -5.7364   -1.5778 C   0  0  0  0  0  0  0  0  0  0  0  0
    7.9371   -5.5543   -2.4981 C   0  0  0  0  0  0  0  0  0  0  0  0
    9.1695   -6.1523   -2.3565 O   0  0  0  0  0  0  0  0  0  0  0  0
    9.1551   -7.4474   -1.7626 C   0  0  0  0  0  0  0  0  0  0  0  0
    7.7671   -4.6945   -3.6032 C   0  0  0  0  0  0  0  0  0  0  0  0
    8.8509   -4.5690   -4.4414 O   0  0  0  0  0  0  0  0  0  0  0  0
    9.0662   -3.2926   -5.0371 C   0  0  0  0  0  0  0  0  0  0  0  0
    5.3279   -1.9392   -5.9916 H   0  0  0  0  0  0  0  0  0  0  0  0
    5.3694   -1.7273   -4.2337 H   0  0  0  0  0  0  0  0  0  0  0  0
    4.2940   -2.9624   -5.0002 H   0  0  0  0  0  0  0  0  0  0  0  0
    4.5089   -3.8418   -3.0506 H   0  0  0  0  0  0  0  0  0  0  0  0
    4.8762   -5.5028    0.2391 H   0  0  0  0  0  0  0  0  0  0  0  0
    2.9401   -5.2181   -2.1429 H   0  0  0  0  0  0  0  0  0  0  0  0
    1.6476   -7.1089   -2.3273 H   0  0  0  0  0  0  0  0  0  0  0  0
   -0.4984   -7.6245   -3.2580 H   0  0  0  0  0  0  0  0  0  0  0  0
   -3.7150   -6.5132   -1.7324 H   0  0  0  0  0  0  0  0  0  0  0  0
   -5.3173   -7.7302   -2.7388 H   0  0  0  0  0  0  0  0  0  0  0  0
   -4.8744   -9.0850   -3.7703 H   0  0  0  0  0  0  0  0  0  0  0  0
   -6.6311   -6.6103   -5.9501 H   0  0  0  0  0  0  0  0  0  0  0  0
   -7.0698   -7.0713   -4.3222 H   0  0  0  0  0  0  0  0  0  0  0  0
   -7.8266   -8.7628   -5.9692 H   0  0  0  0  0  0  0  0  0  0  0  0
   -6.6894   -9.4902   -4.8777 H   0  0  0  0  0  0  0  0  0  0  0  0
   -7.8161   -7.8906   -8.0115 H   0  0  0  0  0  0  0  0  0  0  0  0
   -6.2073  -11.8956  -10.4402 H   0  0  0  0  0  0  0  0  0  0  0  0
  -12.1875   -8.9802  -11.4546 H   0  0  0  0  0  0  0  0  0  0  0  0
  -13.5547  -11.0768  -10.0266 H   0  0  0  0  0  0  0  0  0  0  0  0
  -14.3124  -10.0615  -11.0530 H   0  0  0  0  0  0  0  0  0  0  0  0
   -9.0763   -8.5757  -12.1485 H   0  0  0  0  0  0  0  0  0  0  0  0
  -10.6957   -8.4207   -8.6750 H   0  0  0  0  0  0  0  0  0  0  0  0
  -11.9787   -6.4578   -9.5045 H   0  0  0  0  0  0  0  0  0  0  0  0
  -10.7404   -6.1523  -10.8070 H   0  0  0  0  0  0  0  0  0  0  0  0
  -10.1908   -6.1418   -7.7642 H   0  0  0  0  0  0  0  0  0  0  0  0
   -8.9568   -5.8674   -9.0747 H   0  0  0  0  0  0  0  0  0  0  0  0
   -3.8772   -9.0036   -7.5164 H   0  0  0  0  0  0  0  0  0  0  0  0
   -4.0443   -9.7294   -5.9130 H   0  0  0  0  0  0  0  0  0  0  0  0
   -4.3869   -6.7908   -6.7333 H   0  0  0  0  0  0  0  0  0  0  0  0
   -3.0997   -7.4111   -5.7512 H   0  0  0  0  0  0  0  0  0  0  0  0
   -2.4541   -5.6170    0.0209 H   0  0  0  0  0  0  0  0  0  0  0  0
   -0.2442   -5.0394    0.9605 H   0  0  0  0  0  0  0  0  0  0  0  0
    7.0265   -6.3604   -0.6988 H   0  0  0  0  0  0  0  0  0  0  0  0
   10.1169   -7.9261   -1.9714 H   0  0  0  0  0  0  0  0  0  0  0  0
    8.3686   -8.0820   -2.1870 H   0  0  0  0  0  0  0  0  0  0  0  0
    9.0516   -7.3734   -0.6754 H   0  0  0  0  0  0  0  0  0  0  0  0
   10.1277   -3.2075   -5.2900 H   0  0  0  0  0  0  0  0  0  0  0  0
    8.8171   -2.4656   -4.3623 H   0  0  0  0  0  0  0  0  0  0  0  0
    8.5091   -3.2143   -5.9757 H   0  0  0  0  0  0  0  0  0  0  0  0
  1  2  1  0  0  0  0
  1 52  1  0  0  0  0
  1 53  1  0  0  0  0
  1 54  1  0  0  0  0
  2  3  1  0  0  0  0
  3  4  1  0  0  0  0
  3 49  2  0  0  0  0
  4  5  2  0  0  0  0
  4 55  1  0  0  0  0
  5  6  1  0  0  0  0
  5 45  1  0  0  0  0
  6  7  2  0  0  0  0
  6 56  1  0  0  0  0
  7  8  1  0  0  0  0
  7 57  1  0  0  0  0
  8  9  2  0  0  0  0
  8 10  1  0  0  0  0
 10 11  1  0  0  0  0
 10 44  2  0  0  0  0
 11 12  2  0  0  0  0
 11 58  1  0  0  0  0
 12 13  1  0  0  0  0
 12 59  1  0  0  0  0
 13 14  1  0  0  0  0
 13 43  2  0  0  0  0
 14 15  1  0  0  0  0
 14 60  1  0  0  0  0
 15 16  2  0  0  0  0
 15 17  1  0  0  0  0
 17 18  1  0  0  0  0
 17 61  1  0  0  0  0
 17 62  1  0  0  0  0
 18 19  1  0  0  0  0
 18 42  1  0  0  0  0
 19 20  1  0  0  0  0
 19 63  1  0  0  0  0
 19 64  1  0  0  0  0
 20 21  1  0  0  0  0
 20 65  1  0  0  0  0
 20 66  1  0  0  0  0
 21 22  1  0  0  0  0
 21 41  1  0  0  0  0
 22 23  1  0  0  0  0
 22 27  2  0  0  0  0
 23 24  2  0  0  0  0
 23 67  1  0  0  0  0
 24 25  1  0  0  0  0
 24 37  1  0  0  0  0
 25 26  2  0  0  0  0
 25 29  1  0  0  0  0
 26 27  1  0  0  0  0
 26 68  1  0  0  0  0
 27 28  1  0  0  0  0
 29 30  2  0  0  0  0
 29 31  1  0  0  0  0
 31 32  1  0  0  0  0
 31 36  2  0  0  0  0
 32 33  2  0  0  0  0
 32 34  1  0  0  0  0
 34 35  1  0  0  0  0
 34 69  1  0  0  0  0
 35 70  1  0  0  0  0
 35 71  1  0  0  0  0
 36 37  1  0  0  0  0
 36 72  1  0  0  0  0
 37 38  1  0  0  0  0
 38 39  1  0  0  0  0
 38 40  1  0  0  0  0
 38 73  1  0  0  0  0
 39 40  1  0  0  0  0
 39 74  1  0  0  0  0
 39 75  1  0  0  0  0
 40 76  1  0  0  0  0
 40 77  1  0  0  0  0
 41 42  1  0  0  0  0
 41 78  1  0  0  0  0
 41 79  1  0  0  0  0
 42 80  1  0  0  0  0
 42 81  1  0  0  0  0
 43 44  1  0  0  0  0
 43 82  1  0  0  0  0
 44 83  1  0  0  0  0
 45 46  2  0  0  0  0
 45 84  1  0  0  0  0
 46 47  1  0  0  0  0
 46 49  1  0  0  0  0
 47 48  1  0  0  0  0
 48 85  1  0  0  0  0
 48 86  1  0  0  0  0
 48 87  1  0  0  0  0
 49 50  1  0  0  0  0
 50 51  1  0  0  0  0
 51 88  1  0  0  0  0
 51 89  1  0  0  0  0
 51 90  1  0  0  0  0
M  END
>  <Line_Number>
179


> <IC50>
912010

$$$$
