386826
 OpenBabel09092522103D

 77 82  0  0  0  0  0  0  0  0999 V2000
    2.4196    1.5419   -1.1889 O   0  0  0  0  0  0  0  0  0  0  0  0
    3.1797    0.6681   -1.6073 C   0  0  0  0  0  0  0  0  0  0  0  0
    3.1677   -0.7486   -1.0122 C   0  0  0  0  0  0  0  0  0  0  0  0
    2.1332   -1.6081   -1.6292 N   0  0  0  0  0  0  0  0  0  0  0  0
    0.7687   -1.0482   -1.4242 C   0  0  0  0  0  0  0  0  0  0  0  0
    0.3302   -0.9922    0.0504 C   0  0  0  0  0  0  0  0  0  0  0  0
    0.3879   -2.3513    0.5896 N   0  0  0  0  0  0  0  0  0  0  0  0
   -0.6174   -2.7904    1.4227 C   0  0  0  0  0  0  0  0  0  0  0  0
   -1.0326   -4.1325    1.3600 C   0  0  0  0  0  0  0  0  0  0  0  0
   -2.1688   -4.5857    2.0388 C   0  0  0  0  0  0  0  0  0  0  0  0
   -2.8386   -3.6526    2.8509 C   0  0  0  0  0  0  0  0  0  0  0  0
   -2.4295   -2.3279    2.9709 C   0  0  0  0  0  0  0  0  0  0  0  0
   -1.3381   -1.9075    2.2474 C   0  0  0  0  0  0  0  0  0  0  0  0
   -0.9919   -0.6161    2.3481 F   0  0  0  0  0  0  0  0  0  0  0  0
   -4.0379   -4.0563    3.5873 C   0  0  0  0  0  0  0  0  0  0  0  0
   -4.6254   -3.2550    4.3201 O   0  0  0  0  0  0  0  0  0  0  0  0
   -4.5076   -5.4357    3.4170 C   0  0  0  0  0  0  0  0  0  0  0  0
   -5.7075   -5.9216    4.0958 C   0  0  0  0  0  0  0  0  0  0  0  0
   -6.1083   -7.1209    3.9685 O   0  0  0  0  0  0  0  0  0  0  0  0
   -6.4461   -4.9873    4.9574 N   0  0  0  0  0  0  0  0  0  0  0  0
   -7.5657   -5.4099    5.6245 O   0  0  0  0  0  0  0  0  0  0  0  0
   -3.8133   -6.2637    2.6118 C   0  0  0  0  0  0  0  0  0  0  0  0
   -2.6779   -5.9082    1.9056 N   0  0  0  0  0  0  0  0  0  0  0  0
   -1.9833   -6.9110    1.0666 C   0  0  0  0  0  0  0  0  0  0  0  0
   -2.2247   -6.9666   -0.4396 C   0  0  0  0  0  0  0  0  0  0  0  0
   -2.6184   -8.1035    0.4331 C   0  0  0  0  0  0  0  0  0  0  0  0
    1.6726   -3.0438    0.4642 C   0  0  0  0  0  0  0  0  0  0  0  0
    2.1539   -2.9653   -1.0092 C   0  0  0  0  0  0  0  0  0  0  0  0
    4.1552    0.8625   -2.5798 N   0  0  0  0  0  0  0  0  0  0  0  0
    4.4088    2.1502   -3.0888 C   0  0  0  0  0  0  0  0  0  0  0  0
    5.7023    2.6665   -2.9977 C   0  0  0  0  0  0  0  0  0  0  0  0
    5.9363    4.0011   -3.3300 C   0  0  0  0  0  0  0  0  0  0  0  0
    4.8959    4.7940   -3.8235 C   0  0  0  0  0  0  0  0  0  0  0  0
    5.1845    6.2225   -4.0890 C   0  0  0  0  0  0  0  0  0  0  0  0
    6.3190    6.5912   -4.3711 O   0  0  0  0  0  0  0  0  0  0  0  0
    4.0560    7.1706   -3.9416 C   0  0  0  0  0  0  0  0  0  0  0  0
    4.1609    8.3844   -4.4885 C   0  0  0  0  0  0  0  0  0  0  0  0
    2.9843    9.3441   -4.4171 C   0  0  0  0  0  0  0  0  0  0  0  0
    2.8576   10.2537   -3.3304 C   0  0  0  0  0  0  0  0  0  0  0  0
    1.6358   10.9149   -3.1243 C   0  0  0  0  0  0  0  0  0  0  0  0
    0.7292   10.9127   -4.0569 C   0  0  0  0  0  0  0  0  0  0  0  0
    0.9737   10.2601   -5.2726 C   0  0  0  0  0  0  0  0  0  0  0  0
    2.0541    9.3501   -5.3734 C   0  0  0  0  0  0  0  0  0  0  0  0
    3.6309    4.2342   -4.0380 C   0  0  0  0  0  0  0  0  0  0  0  0
    3.3827    2.9199   -3.6421 C   0  0  0  0  0  0  0  0  0  0  0  0
    3.0535   -0.6410    0.0723 H   0  0  0  0  0  0  0  0  0  0  0  0
    4.1505   -1.2051   -1.1707 H   0  0  0  0  0  0  0  0  0  0  0  0
    0.0577   -1.6907   -1.9650 H   0  0  0  0  0  0  0  0  0  0  0  0
    0.6604   -0.0632   -1.8870 H   0  0  0  0  0  0  0  0  0  0  0  0
   -0.6856   -0.5814    0.0686 H   0  0  0  0  0  0  0  0  0  0  0  0
    0.9658   -0.3343    0.6532 H   0  0  0  0  0  0  0  0  0  0  0  0
   -0.5028   -4.8103    0.6960 H   0  0  0  0  0  0  0  0  0  0  0  0
   -2.9624   -1.6138    3.5883 H   0  0  0  0  0  0  0  0  0  0  0  0
   -6.1314   -4.0225    5.0816 H   0  0  0  0  0  0  0  0  0  0  0  0
   -7.7307   -6.3436    5.4201 H   0  0  0  0  0  0  0  0  0  0  0  0
   -4.1019   -7.3070    2.4468 H   0  0  0  0  0  0  0  0  0  0  0  0
   -0.9621   -7.0784    1.4079 H   0  0  0  0  0  0  0  0  0  0  0  0
   -1.3610   -7.1122   -1.0849 H   0  0  0  0  0  0  0  0  0  0  0  0
   -2.9824   -6.3252   -0.8694 H   0  0  0  0  0  0  0  0  0  0  0  0
   -2.1177   -9.0186    0.3813 H   0  0  0  0  0  0  0  0  0  0  0  0
   -3.5385   -8.5817    0.6649 H   0  0  0  0  0  0  0  0  0  0  0  0
    1.6149   -4.0977    0.7636 H   0  0  0  0  0  0  0  0  0  0  0  0
    2.3978   -2.5728    1.1381 H   0  0  0  0  0  0  0  0  0  0  0  0
    1.4903   -3.6086   -1.6050 H   0  0  0  0  0  0  0  0  0  0  0  0
    3.1516   -3.4098   -1.0971 H   0  0  0  0  0  0  0  0  0  0  0  0
    4.9415    0.2280   -2.5383 H   0  0  0  0  0  0  0  0  0  0  0  0
    6.5179    2.0803   -2.5872 H   0  0  0  0  0  0  0  0  0  0  0  0
    6.9202    4.4375   -3.1676 H   0  0  0  0  0  0  0  0  0  0  0  0
    3.1634    6.8628   -3.4105 H   0  0  0  0  0  0  0  0  0  0  0  0
    5.0348    8.7275   -5.0350 H   0  0  0  0  0  0  0  0  0  0  0  0
    3.6287   10.2943   -2.5646 H   0  0  0  0  0  0  0  0  0  0  0  0
    1.5021   11.4873   -2.2096 H   0  0  0  0  0  0  0  0  0  0  0  0
   -0.1892   11.4852   -3.9544 H   0  0  0  0  0  0  0  0  0  0  0  0
    0.2370   10.3144   -6.0699 H   0  0  0  0  0  0  0  0  0  0  0  0
    2.1365    8.7273   -6.2596 H   0  0  0  0  0  0  0  0  0  0  0  0
    2.8250    4.8034   -4.4945 H   0  0  0  0  0  0  0  0  0  0  0  0
    2.3880    2.5002   -3.7734 H   0  0  0  0  0  0  0  0  0  0  0  0
  1  2  2  0  0  0  0
  2  3  1  0  0  0  0
  2 29  1  0  0  0  0
  3  4  1  0  0  0  0
  3 46  1  0  0  0  0
  3 47  1  0  0  0  0
  4  5  1  0  0  0  0
  4 28  1  0  0  0  0
  5  6  1  0  0  0  0
  5 48  1  0  0  0  0
  5 49  1  0  0  0  0
  6  7  1  0  0  0  0
  6 50  1  0  0  0  0
  6 51  1  0  0  0  0
  7  8  1  0  0  0  0
  7 27  1  0  0  0  0
  8  9  1  0  0  0  0
  8 13  2  0  0  0  0
  9 10  2  0  0  0  0
  9 52  1  0  0  0  0
 10 11  1  0  0  0  0
 10 23  1  0  0  0  0
 11 12  2  0  0  0  0
 11 15  1  0  0  0  0
 12 13  1  0  0  0  0
 12 53  1  0  0  0  0
 13 14  1  0  0  0  0
 15 16  2  0  0  0  0
 15 17  1  0  0  0  0
 17 18  1  0  0  0  0
 17 22  2  0  0  0  0
 18 19  2  0  0  0  0
 18 20  1  0  0  0  0
 20 21  1  0  0  0  0
 20 54  1  0  0  0  0
 21 55  1  0  0  0  0
 22 23  1  0  0  0  0
 22 56  1  0  0  0  0
 23 24  1  0  0  0  0
 24 25  1  0  0  0  0
 24 26  1  0  0  0  0
 24 57  1  0  0  0  0
 25 26  1  0  0  0  0
 25 58  1  0  0  0  0
 25 59  1  0  0  0  0
 26 60  1  0  0  0  0
 26 61  1  0  0  0  0
 27 28  1  0  0  0  0
 27 62  1  0  0  0  0
 27 63  1  0  0  0  0
 28 64  1  0  0  0  0
 28 65  1  0  0  0  0
 29 30  1  0  0  0  0
 29 66  1  0  0  0  0
 30 31  1  0  0  0  0
 30 45  2  0  0  0  0
 31 32  2  0  0  0  0
 31 67  1  0  0  0  0
 32 33  1  0  0  0  0
 32 68  1  0  0  0  0
 33 34  1  0  0  0  0
 33 44  2  0  0  0  0
 34 35  2  0  0  0  0
 34 36  1  0  0  0  0
 36 37  2  0  0  0  0
 36 69  1  0  0  0  0
 37 38  1  0  0  0  0
 37 70  1  0  0  0  0
 38 39  1  0  0  0  0
 38 43  2  0  0  0  0
 39 40  2  0  0  0  0
 39 71  1  0  0  0  0
 40 41  1  0  0  0  0
 40 72  1  0  0  0  0
 41 42  2  0  0  0  0
 41 73  1  0  0  0  0
 42 43  1  0  0  0  0
 42 74  1  0  0  0  0
 43 75  1  0  0  0  0
 44 45  1  0  0  0  0
 44 76  1  0  0  0  0
 45 77  1  0  0  0  0
M  END
>  <Line_Number>
180


> <IC50>
19300

$$$$
