386833
 OpenBabel09092522103D

 50 53  0  0  0  0  0  0  0  0999 V2000
    0.8071   -0.2482    0.6267 C   0  0  0  0  0  0  0  0  0  0  0  0
    2.0396   -0.3438   -0.2298 C   0  0  0  0  0  0  0  0  0  0  0  0
    2.4776    0.6516   -0.8063 O   0  0  0  0  0  0  0  0  0  0  0  0
    2.6452   -1.5823   -0.3138 N   0  0  0  0  0  0  0  0  0  0  0  0
    2.1272   -2.8310    0.2773 C   0  0  0  0  0  0  0  0  0  0  0  0
    3.2398   -3.6736    0.9404 C   0  0  0  0  0  0  0  0  0  0  0  0
    4.3432   -3.8251   -0.0148 N   0  0  0  0  0  0  0  0  0  0  0  0
    5.1075   -4.9749   -0.0684 C   0  0  0  0  0  0  0  0  0  0  0  0
    5.6864   -5.3320   -1.2992 C   0  0  0  0  0  0  0  0  0  0  0  0
    6.4628   -6.4830   -1.4707 C   0  0  0  0  0  0  0  0  0  0  0  0
    6.6148   -7.3294   -0.3625 C   0  0  0  0  0  0  0  0  0  0  0  0
    6.0427   -7.0188    0.8737 C   0  0  0  0  0  0  0  0  0  0  0  0
    5.3016   -5.8518    1.0072 C   0  0  0  0  0  0  0  0  0  0  0  0
    4.7826   -5.5758    2.2141 F   0  0  0  0  0  0  0  0  0  0  0  0
    7.3790   -8.5869   -0.5062 C   0  0  0  0  0  0  0  0  0  0  0  0
    7.5733   -9.3085    0.4689 O   0  0  0  0  0  0  0  0  0  0  0  0
    7.8712   -8.9567   -1.8560 C   0  0  0  0  0  0  0  0  0  0  0  0
    8.5246  -10.2643   -2.1600 C   0  0  0  0  0  0  0  0  0  0  0  0
    8.8795  -10.5635   -3.2967 O   0  0  0  0  0  0  0  0  0  0  0  0
    8.6913  -11.1119   -1.0739 N   0  0  0  0  0  0  0  0  0  0  0  0
    9.3277  -12.3653   -1.2377 N   0  0  0  0  0  0  0  0  0  0  0  0
    7.6912   -8.0559   -2.8374 C   0  0  0  0  0  0  0  0  0  0  0  0
    7.0838   -6.8140   -2.7038 N   0  0  0  0  0  0  0  0  0  0  0  0
    7.0034   -5.9375   -3.8945 C   0  0  0  0  0  0  0  0  0  0  0  0
    8.2672   -5.4167   -4.5395 C   0  0  0  0  0  0  0  0  0  0  0  0
    7.3289   -4.4594   -3.8833 C   0  0  0  0  0  0  0  0  0  0  0  0
    4.9188   -2.5490   -0.4820 C   0  0  0  0  0  0  0  0  0  0  0  0
    3.8147   -1.7493   -1.1882 C   0  0  0  0  0  0  0  0  0  0  0  0
    0.4361    0.7811    0.6176 H   0  0  0  0  0  0  0  0  0  0  0  0
    1.0463   -0.5157    1.6589 H   0  0  0  0  0  0  0  0  0  0  0  0
    0.0233   -0.8983    0.2290 H   0  0  0  0  0  0  0  0  0  0  0  0
    1.6826   -3.4009   -0.5487 H   0  0  0  0  0  0  0  0  0  0  0  0
    1.3369   -2.6406    1.0050 H   0  0  0  0  0  0  0  0  0  0  0  0
    2.8070   -4.6409    1.2195 H   0  0  0  0  0  0  0  0  0  0  0  0
    3.5988   -3.1783    1.8506 H   0  0  0  0  0  0  0  0  0  0  0  0
    5.4729   -4.6991   -2.1549 H   0  0  0  0  0  0  0  0  0  0  0  0
    6.1657   -7.6725    1.7313 H   0  0  0  0  0  0  0  0  0  0  0  0
    8.4388  -10.7953   -0.1330 H   0  0  0  0  0  0  0  0  0  0  0  0
    9.7056  -12.3892   -2.1939 H   0  0  0  0  0  0  0  0  0  0  0  0
    8.6069  -13.0907   -1.2276 H   0  0  0  0  0  0  0  0  0  0  0  0
    8.0306   -8.2637   -3.8520 H   0  0  0  0  0  0  0  0  0  0  0  0
    6.1893   -6.2316   -4.5551 H   0  0  0  0  0  0  0  0  0  0  0  0
    8.3272   -5.4047   -5.6201 H   0  0  0  0  0  0  0  0  0  0  0  0
    9.2134   -5.5919   -4.0392 H   0  0  0  0  0  0  0  0  0  0  0  0
    6.7412   -3.8091   -4.5220 H   0  0  0  0  0  0  0  0  0  0  0  0
    7.6587   -3.9905   -2.9640 H   0  0  0  0  0  0  0  0  0  0  0  0
    5.7654   -2.6815   -1.1645 H   0  0  0  0  0  0  0  0  0  0  0  0
    5.2920   -1.9853    0.3832 H   0  0  0  0  0  0  0  0  0  0  0  0
    3.4732   -2.2957   -2.0770 H   0  0  0  0  0  0  0  0  0  0  0  0
    4.2080   -0.7853   -1.5237 H   0  0  0  0  0  0  0  0  0  0  0  0
  1  2  1  0  0  0  0
  1 29  1  0  0  0  0
  1 30  1  0  0  0  0
  1 31  1  0  0  0  0
  2  3  2  0  0  0  0
  2  4  1  0  0  0  0
  4  5  1  0  0  0  0
  4 28  1  0  0  0  0
  5  6  1  0  0  0  0
  5 32  1  0  0  0  0
  5 33  1  0  0  0  0
  6  7  1  0  0  0  0
  6 34  1  0  0  0  0
  6 35  1  0  0  0  0
  7  8  1  0  0  0  0
  7 27  1  0  0  0  0
  8  9  1  0  0  0  0
  8 13  2  0  0  0  0
  9 10  2  0  0  0  0
  9 36  1  0  0  0  0
 10 11  1  0  0  0  0
 10 23  1  0  0  0  0
 11 12  2  0  0  0  0
 11 15  1  0  0  0  0
 12 13  1  0  0  0  0
 12 37  1  0  0  0  0
 13 14  1  0  0  0  0
 15 16  2  0  0  0  0
 15 17  1  0  0  0  0
 17 18  1  0  0  0  0
 17 22  2  0  0  0  0
 18 19  2  0  0  0  0
 18 20  1  0  0  0  0
 20 21  1  0  0  0  0
 20 38  1  0  0  0  0
 21 39  1  0  0  0  0
 21 40  1  0  0  0  0
 22 23  1  0  0  0  0
 22 41  1  0  0  0  0
 23 24  1  0  0  0  0
 24 25  1  0  0  0  0
 24 26  1  0  0  0  0
 24 42  1  0  0  0  0
 25 26  1  0  0  0  0
 25 43  1  0  0  0  0
 25 44  1  0  0  0  0
 26 45  1  0  0  0  0
 26 46  1  0  0  0  0
 27 28  1  0  0  0  0
 27 47  1  0  0  0  0
 27 48  1  0  0  0  0
 28 49  1  0  0  0  0
 28 50  1  0  0  0  0
M  END
>  <Line_Number>
183


> <IC50>
1220

$$$$
