386823
 OpenBabel09092522103D

 49 52  0  0  0  0  0  0  0  0999 V2000
    0.7484    0.3390   -1.3969 C   0  0  0  0  0  0  0  0  0  0  0  0
    1.8377    0.4176   -0.3582 C   0  0  0  0  0  0  0  0  0  0  0  0
    2.1549   -0.5796    0.2892 O   0  0  0  0  0  0  0  0  0  0  0  0
    2.4551    1.6442   -0.1900 N   0  0  0  0  0  0  0  0  0  0  0  0
    2.0203    2.8880   -0.8402 C   0  0  0  0  0  0  0  0  0  0  0  0
    3.2169    3.7785   -1.2349 C   0  0  0  0  0  0  0  0  0  0  0  0
    4.0452    3.9910   -0.0429 N   0  0  0  0  0  0  0  0  0  0  0  0
    4.6541    5.2095    0.1943 C   0  0  0  0  0  0  0  0  0  0  0  0
    4.8823    5.6033    1.5240 C   0  0  0  0  0  0  0  0  0  0  0  0
    5.4144    6.8538    1.8664 C   0  0  0  0  0  0  0  0  0  0  0  0
    5.6878    7.7512    0.8219 C   0  0  0  0  0  0  0  0  0  0  0  0
    5.4896    7.3929   -0.5116 C   0  0  0  0  0  0  0  0  0  0  0  0
    4.9847    6.1340   -0.8098 C   0  0  0  0  0  0  0  0  0  0  0  0
    4.8189    5.8223   -2.1048 F   0  0  0  0  0  0  0  0  0  0  0  0
    6.1586    9.1178    1.1397 C   0  0  0  0  0  0  0  0  0  0  0  0
    6.4306    9.9089    0.2401 O   0  0  0  0  0  0  0  0  0  0  0  0
    6.2557    9.5073    2.5684 C   0  0  0  0  0  0  0  0  0  0  0  0
    6.6034   10.8768    3.0262 C   0  0  0  0  0  0  0  0  0  0  0  0
    6.6711   11.1834    4.2151 O   0  0  0  0  0  0  0  0  0  0  0  0
    6.8393   11.7831    2.0293 N   0  0  0  0  0  0  0  0  0  0  0  0
    7.1864   13.0962    2.4076 O   0  0  0  0  0  0  0  0  0  0  0  0
    6.0080    8.5540    3.4807 C   0  0  0  0  0  0  0  0  0  0  0  0
    5.6650    7.2402    3.2102 N   0  0  0  0  0  0  0  0  0  0  0  0
    5.4257    6.3397    4.3566 C   0  0  0  0  0  0  0  0  0  0  0  0
    6.5393    6.0248    5.3288 C   0  0  0  0  0  0  0  0  0  0  0  0
    5.9949    4.9433    4.4545 C   0  0  0  0  0  0  0  0  0  0  0  0
    4.5725    2.7507    0.5571 C   0  0  0  0  0  0  0  0  0  0  0  0
    3.4015    1.8201    0.9231 C   0  0  0  0  0  0  0  0  0  0  0  0
    0.3365   -0.6731   -1.4152 H   0  0  0  0  0  0  0  0  0  0  0  0
    1.1560    0.5615   -2.3868 H   0  0  0  0  0  0  0  0  0  0  0  0
   -0.0596    1.0315   -1.1474 H   0  0  0  0  0  0  0  0  0  0  0  0
    1.3891    3.4185   -0.1208 H   0  0  0  0  0  0  0  0  0  0  0  0
    1.4184    2.6947   -1.7306 H   0  0  0  0  0  0  0  0  0  0  0  0
    2.8144    4.7166   -1.6316 H   0  0  0  0  0  0  0  0  0  0  0  0
    3.8121    3.2953   -2.0202 H   0  0  0  0  0  0  0  0  0  0  0  0
    4.5675    4.9259    2.3114 H   0  0  0  0  0  0  0  0  0  0  0  0
    5.7071    8.0839   -1.3218 H   0  0  0  0  0  0  0  0  0  0  0  0
    6.8169   11.5583    1.0340 H   0  0  0  0  0  0  0  0  0  0  0  0
    7.1667   13.0460    3.3876 H   0  0  0  0  0  0  0  0  0  0  0  0
    6.0656    8.7778    4.5448 H   0  0  0  0  0  0  0  0  0  0  0  0
    4.4333    6.4850    4.7794 H   0  0  0  0  0  0  0  0  0  0  0  0
    6.3021    5.9899    6.3848 H   0  0  0  0  0  0  0  0  0  0  0  0
    7.5396    6.3794    5.1065 H   0  0  0  0  0  0  0  0  0  0  0  0
    5.3756    4.1799    4.9126 H   0  0  0  0  0  0  0  0  0  0  0  0
    6.6330    4.5757    3.6594 H   0  0  0  0  0  0  0  0  0  0  0  0
    5.1794    2.9328    1.4518 H   0  0  0  0  0  0  0  0  0  0  0  0
    5.2234    2.2524   -0.1721 H   0  0  0  0  0  0  0  0  0  0  0  0
    2.8314    2.2580    1.7529 H   0  0  0  0  0  0  0  0  0  0  0  0
    3.7885    0.8554    1.2663 H   0  0  0  0  0  0  0  0  0  0  0  0
  1  2  1  0  0  0  0
  1 29  1  0  0  0  0
  1 30  1  0  0  0  0
  1 31  1  0  0  0  0
  2  3  2  0  0  0  0
  2  4  1  0  0  0  0
  4  5  1  0  0  0  0
  4 28  1  0  0  0  0
  5  6  1  0  0  0  0
  5 32  1  0  0  0  0
  5 33  1  0  0  0  0
  6  7  1  0  0  0  0
  6 34  1  0  0  0  0
  6 35  1  0  0  0  0
  7  8  1  0  0  0  0
  7 27  1  0  0  0  0
  8  9  1  0  0  0  0
  8 13  2  0  0  0  0
  9 10  2  0  0  0  0
  9 36  1  0  0  0  0
 10 11  1  0  0  0  0
 10 23  1  0  0  0  0
 11 12  2  0  0  0  0
 11 15  1  0  0  0  0
 12 13  1  0  0  0  0
 12 37  1  0  0  0  0
 13 14  1  0  0  0  0
 15 16  2  0  0  0  0
 15 17  1  0  0  0  0
 17 18  1  0  0  0  0
 17 22  2  0  0  0  0
 18 19  2  0  0  0  0
 18 20  1  0  0  0  0
 20 21  1  0  0  0  0
 20 38  1  0  0  0  0
 21 39  1  0  0  0  0
 22 23  1  0  0  0  0
 22 40  1  0  0  0  0
 23 24  1  0  0  0  0
 24 25  1  0  0  0  0
 24 26  1  0  0  0  0
 24 41  1  0  0  0  0
 25 26  1  0  0  0  0
 25 42  1  0  0  0  0
 25 43  1  0  0  0  0
 26 44  1  0  0  0  0
 26 45  1  0  0  0  0
 27 28  1  0  0  0  0
 27 46  1  0  0  0  0
 27 47  1  0  0  0  0
 28 48  1  0  0  0  0
 28 49  1  0  0  0  0
M  END
>  <Line_Number>
188


> <IC50>
2220

$$$$
