386821
 OpenBabel09092522103D

 47 50  0  0  0  0  0  0  0  0999 V2000
    0.6630   -0.2821    0.8472 C   0  0  0  0  0  0  0  0  0  0  0  0
    1.8474   -0.3064   -0.0770 C   0  0  0  0  0  0  0  0  0  0  0  0
    2.3121    0.7418   -0.5247 O   0  0  0  0  0  0  0  0  0  0  0  0
    2.3885   -1.5430   -0.3670 N   0  0  0  0  0  0  0  0  0  0  0  0
    1.8438   -2.8416    0.0727 C   0  0  0  0  0  0  0  0  0  0  0  0
    2.9408   -3.7724    0.6319 C   0  0  0  0  0  0  0  0  0  0  0  0
    4.0396   -3.8382   -0.3380 N   0  0  0  0  0  0  0  0  0  0  0  0
    4.7500   -5.0026   -0.5547 C   0  0  0  0  0  0  0  0  0  0  0  0
    5.3099   -5.2170   -1.8262 C   0  0  0  0  0  0  0  0  0  0  0  0
    6.0167   -6.3765   -2.1594 C   0  0  0  0  0  0  0  0  0  0  0  0
    6.1166   -7.3759   -1.1790 C   0  0  0  0  0  0  0  0  0  0  0  0
    5.5711   -7.2055    0.0939 C   0  0  0  0  0  0  0  0  0  0  0  0
    4.8994   -6.0267    0.3907 C   0  0  0  0  0  0  0  0  0  0  0  0
    4.3994   -5.8895    1.6292 F   0  0  0  0  0  0  0  0  0  0  0  0
    6.7829   -8.6486   -1.5135 C   0  0  0  0  0  0  0  0  0  0  0  0
    6.9371   -9.5319   -0.6713 O   0  0  0  0  0  0  0  0  0  0  0  0
    7.2319   -8.8634   -2.9057 C   0  0  0  0  0  0  0  0  0  0  0  0
    7.7817  -10.1476   -3.3779 C   0  0  0  0  0  0  0  0  0  0  0  0
    8.1383  -10.3360   -4.5347 O   0  0  0  0  0  0  0  0  0  0  0  0
    7.8571  -11.1142   -2.4385 O   0  0  0  0  0  0  0  0  0  0  0  0
    7.1175   -7.8245   -3.7513 C   0  0  0  0  0  0  0  0  0  0  0  0
    6.6111   -6.5737   -3.4325 N   0  0  0  0  0  0  0  0  0  0  0  0
    6.5906   -5.5364   -4.4884 C   0  0  0  0  0  0  0  0  0  0  0  0
    7.8839   -5.0250   -5.0805 C   0  0  0  0  0  0  0  0  0  0  0  0
    7.0305   -4.1044   -4.2733 C   0  0  0  0  0  0  0  0  0  0  0  0
    4.6354   -2.5324   -0.6794 C   0  0  0  0  0  0  0  0  0  0  0  0
    3.5415   -1.6338   -1.2743 C   0  0  0  0  0  0  0  0  0  0  0  0
    0.3269    0.7508    0.9792 H   0  0  0  0  0  0  0  0  0  0  0  0
    0.9474   -0.6782    1.8262 H   0  0  0  0  0  0  0  0  0  0  0  0
   -0.1627   -0.8577    0.4211 H   0  0  0  0  0  0  0  0  0  0  0  0
    1.3897   -3.3031   -0.8141 H   0  0  0  0  0  0  0  0  0  0  0  0
    1.0560   -2.7234    0.8187 H   0  0  0  0  0  0  0  0  0  0  0  0
    2.4867   -4.7547    0.8048 H   0  0  0  0  0  0  0  0  0  0  0  0
    3.3132   -3.3887    1.5891 H   0  0  0  0  0  0  0  0  0  0  0  0
    5.1317   -4.4657   -2.5892 H   0  0  0  0  0  0  0  0  0  0  0  0
    5.6549   -7.9772    0.8539 H   0  0  0  0  0  0  0  0  0  0  0  0
    7.5531  -10.8333   -1.5384 H   0  0  0  0  0  0  0  0  0  0  0  0
    7.4338   -7.9173   -4.7894 H   0  0  0  0  0  0  0  0  0  0  0  0
    5.7512   -5.6731   -5.1684 H   0  0  0  0  0  0  0  0  0  0  0  0
    7.9308   -4.8640   -6.1501 H   0  0  0  0  0  0  0  0  0  0  0  0
    8.8207   -5.3401   -4.6337 H   0  0  0  0  0  0  0  0  0  0  0  0
    6.4876   -3.3252   -4.7984 H   0  0  0  0  0  0  0  0  0  0  0  0
    7.4044   -3.8003   -3.3028 H   0  0  0  0  0  0  0  0  0  0  0  0
    5.4680   -2.6087   -1.3872 H   0  0  0  0  0  0  0  0  0  0  0  0
    5.0369   -2.0753    0.2344 H   0  0  0  0  0  0  0  0  0  0  0  0
    3.1771   -2.0643   -2.2157 H   0  0  0  0  0  0  0  0  0  0  0  0
    3.9531   -0.6455   -1.4995 H   0  0  0  0  0  0  0  0  0  0  0  0
  1  2  1  0  0  0  0
  1 28  1  0  0  0  0
  1 29  1  0  0  0  0
  1 30  1  0  0  0  0
  2  3  2  0  0  0  0
  2  4  1  0  0  0  0
  4  5  1  0  0  0  0
  4 27  1  0  0  0  0
  5  6  1  0  0  0  0
  5 31  1  0  0  0  0
  5 32  1  0  0  0  0
  6  7  1  0  0  0  0
  6 33  1  0  0  0  0
  6 34  1  0  0  0  0
  7  8  1  0  0  0  0
  7 26  1  0  0  0  0
  8  9  1  0  0  0  0
  8 13  2  0  0  0  0
  9 10  2  0  0  0  0
  9 35  1  0  0  0  0
 10 11  1  0  0  0  0
 10 22  1  0  0  0  0
 11 12  2  0  0  0  0
 11 15  1  0  0  0  0
 12 13  1  0  0  0  0
 12 36  1  0  0  0  0
 13 14  1  0  0  0  0
 15 16  2  0  0  0  0
 15 17  1  0  0  0  0
 17 18  1  0  0  0  0
 17 21  2  0  0  0  0
 18 19  2  0  0  0  0
 18 20  1  0  0  0  0
 20 37  1  0  0  0  0
 21 22  1  0  0  0  0
 21 38  1  0  0  0  0
 22 23  1  0  0  0  0
 23 24  1  0  0  0  0
 23 25  1  0  0  0  0
 23 39  1  0  0  0  0
 24 25  1  0  0  0  0
 24 40  1  0  0  0  0
 24 41  1  0  0  0  0
 25 42  1  0  0  0  0
 25 43  1  0  0  0  0
 26 27  1  0  0  0  0
 26 44  1  0  0  0  0
 26 45  1  0  0  0  0
 27 46  1  0  0  0  0
 27 47  1  0  0  0  0
M  END
>  <Line_Number>
191


> <IC50>
2260

$$$$
