386835
 OpenBabel09092522103D

 69 73  0  0  0  0  0  0  0  0999 V2000
    4.6471    5.0059   -2.0382 C   0  0  0  0  0  0  0  0  0  0  0  0
    5.5625    3.9503   -1.7524 O   0  0  0  0  0  0  0  0  0  0  0  0
    5.1689    2.6877   -2.1153 C   0  0  0  0  0  0  0  0  0  0  0  0
    4.3456    2.4675   -3.2231 C   0  0  0  0  0  0  0  0  0  0  0  0
    3.8932    1.1832   -3.5293 C   0  0  0  0  0  0  0  0  0  0  0  0
    2.8734    0.9402   -4.5752 C   0  0  0  0  0  0  0  0  0  0  0  0
    3.0558   -0.0274   -5.3180 O   0  0  0  0  0  0  0  0  0  0  0  0
    1.7436    1.7480   -4.6612 N   0  0  0  0  0  0  0  0  0  0  0  0
    1.3754    2.8680   -3.7755 C   0  0  0  0  0  0  0  0  0  0  0  0
   -0.0596    2.7609   -3.2399 C   0  0  0  0  0  0  0  0  0  0  0  0
   -0.9795    2.4988   -4.3539 N   0  0  0  0  0  0  0  0  0  0  0  0
   -2.1664    3.1860   -4.4468 C   0  0  0  0  0  0  0  0  0  0  0  0
   -2.1404    4.5817   -4.2809 C   0  0  0  0  0  0  0  0  0  0  0  0
   -3.2992    5.3525   -4.2682 C   0  0  0  0  0  0  0  0  0  0  0  0
   -4.5392    4.6992   -4.3818 C   0  0  0  0  0  0  0  0  0  0  0  0
   -4.6028    3.3336   -4.6594 C   0  0  0  0  0  0  0  0  0  0  0  0
   -3.4178    2.5970   -4.7024 C   0  0  0  0  0  0  0  0  0  0  0  0
   -3.5078    1.2797   -4.9476 F   0  0  0  0  0  0  0  0  0  0  0  0
   -5.7745    5.5019   -4.1377 C   0  0  0  0  0  0  0  0  0  0  0  0
   -6.8928    5.0375   -4.3182 O   0  0  0  0  0  0  0  0  0  0  0  0
   -5.5621    6.9128   -3.6766 C   0  0  0  0  0  0  0  0  0  0  0  0
   -5.6663    7.2248   -2.2180 C   0  0  0  0  0  0  0  0  0  0  0  0
   -6.0099    6.3984   -1.3809 O   0  0  0  0  0  0  0  0  0  0  0  0
   -5.3383    8.5464   -1.9005 N   0  0  0  0  0  0  0  0  0  0  0  0
   -5.2541    8.9571   -0.5529 N   0  0  0  0  0  0  0  0  0  0  0  0
   -4.4847    7.4468   -4.2939 C   0  0  0  0  0  0  0  0  0  0  0  0
   -3.2402    6.7810   -4.2055 N   0  0  0  0  0  0  0  0  0  0  0  0
   -2.2682    7.3924   -3.2694 C   0  0  0  0  0  0  0  0  0  0  0  0
   -1.8074    8.8162   -3.4441 C   0  0  0  0  0  0  0  0  0  0  0  0
   -0.8479    7.6923   -3.6776 C   0  0  0  0  0  0  0  0  0  0  0  0
   -0.6718    1.2851   -5.1248 C   0  0  0  0  0  0  0  0  0  0  0  0
    0.7490    1.4582   -5.7119 C   0  0  0  0  0  0  0  0  0  0  0  0
    4.4185    0.0822   -2.8519 C   0  0  0  0  0  0  0  0  0  0  0  0
    5.3299    0.2734   -1.8120 C   0  0  0  0  0  0  0  0  0  0  0  0
    5.8726   -0.7735   -1.1050 O   0  0  0  0  0  0  0  0  0  0  0  0
    6.1487   -1.9443   -1.8700 C   0  0  0  0  0  0  0  0  0  0  0  0
    5.6609    1.5813   -1.3953 C   0  0  0  0  0  0  0  0  0  0  0  0
    6.5274    1.6593   -0.3300 O   0  0  0  0  0  0  0  0  0  0  0  0
    6.2863    2.7063    0.6018 C   0  0  0  0  0  0  0  0  0  0  0  0
    5.0051    5.9077   -1.5328 H   0  0  0  0  0  0  0  0  0  0  0  0
    3.6443    4.7831   -1.6550 H   0  0  0  0  0  0  0  0  0  0  0  0
    4.6160    5.2247   -3.1099 H   0  0  0  0  0  0  0  0  0  0  0  0
    4.0320    3.2896   -3.8567 H   0  0  0  0  0  0  0  0  0  0  0  0
    1.4851    3.7859   -4.3663 H   0  0  0  0  0  0  0  0  0  0  0  0
    2.0250    2.9459   -2.9040 H   0  0  0  0  0  0  0  0  0  0  0  0
   -0.2965    3.6783   -2.6905 H   0  0  0  0  0  0  0  0  0  0  0  0
   -0.1233    1.9415   -2.5121 H   0  0  0  0  0  0  0  0  0  0  0  0
   -1.1769    5.0740   -4.2044 H   0  0  0  0  0  0  0  0  0  0  0  0
   -5.5538    2.8321   -4.8122 H   0  0  0  0  0  0  0  0  0  0  0  0
   -4.9359    9.1548   -2.6100 H   0  0  0  0  0  0  0  0  0  0  0  0
   -5.7201    8.2359    0.0152 H   0  0  0  0  0  0  0  0  0  0  0  0
   -5.8286    9.7954   -0.4358 H   0  0  0  0  0  0  0  0  0  0  0  0
   -4.5937    7.4878   -5.3844 H   0  0  0  0  0  0  0  0  0  0  0  0
   -2.4252    7.0641   -2.2415 H   0  0  0  0  0  0  0  0  0  0  0  0
   -1.6845    9.4164   -2.5537 H   0  0  0  0  0  0  0  0  0  0  0  0
   -2.1436    9.3677   -4.3158 H   0  0  0  0  0  0  0  0  0  0  0  0
   -0.0703    7.5255   -2.9419 H   0  0  0  0  0  0  0  0  0  0  0  0
   -0.5499    7.4851   -4.7005 H   0  0  0  0  0  0  0  0  0  0  0  0
   -1.3715    1.1249   -5.9489 H   0  0  0  0  0  0  0  0  0  0  0  0
   -0.7017    0.4073   -4.4667 H   0  0  0  0  0  0  0  0  0  0  0  0
    0.7573    2.3189   -6.3935 H   0  0  0  0  0  0  0  0  0  0  0  0
    1.0210    0.5739   -6.2933 H   0  0  0  0  0  0  0  0  0  0  0  0
    4.0925   -0.9133   -3.1408 H   0  0  0  0  0  0  0  0  0  0  0  0
    6.8132   -2.5817   -1.2782 H   0  0  0  0  0  0  0  0  0  0  0  0
    6.6649   -1.7048   -2.8076 H   0  0  0  0  0  0  0  0  0  0  0  0
    5.2334   -2.5113   -2.0621 H   0  0  0  0  0  0  0  0  0  0  0  0
    6.7483    2.4185    1.5516 H   0  0  0  0  0  0  0  0  0  0  0  0
    5.2178    2.8634    0.7875 H   0  0  0  0  0  0  0  0  0  0  0  0
    6.7745    3.6300    0.2793 H   0  0  0  0  0  0  0  0  0  0  0  0
  1  2  1  0  0  0  0
  1 40  1  0  0  0  0
  1 41  1  0  0  0  0
  1 42  1  0  0  0  0
  2  3  1  0  0  0  0
  3  4  1  0  0  0  0
  3 37  2  0  0  0  0
  4  5  2  0  0  0  0
  4 43  1  0  0  0  0
  5  6  1  0  0  0  0
  5 33  1  0  0  0  0
  6  7  2  0  0  0  0
  6  8  1  0  0  0  0
  8  9  1  0  0  0  0
  8 32  1  0  0  0  0
  9 10  1  0  0  0  0
  9 44  1  0  0  0  0
  9 45  1  0  0  0  0
 10 11  1  0  0  0  0
 10 46  1  0  0  0  0
 10 47  1  0  0  0  0
 11 12  1  0  0  0  0
 11 31  1  0  0  0  0
 12 13  1  0  0  0  0
 12 17  2  0  0  0  0
 13 14  2  0  0  0  0
 13 48  1  0  0  0  0
 14 15  1  0  0  0  0
 14 27  1  0  0  0  0
 15 16  2  0  0  0  0
 15 19  1  0  0  0  0
 16 17  1  0  0  0  0
 16 49  1  0  0  0  0
 17 18  1  0  0  0  0
 19 20  2  0  0  0  0
 19 21  1  0  0  0  0
 21 22  1  0  0  0  0
 21 26  2  0  0  0  0
 22 23  2  0  0  0  0
 22 24  1  0  0  0  0
 24 25  1  0  0  0  0
 24 50  1  0  0  0  0
 25 51  1  0  0  0  0
 25 52  1  0  0  0  0
 26 27  1  0  0  0  0
 26 53  1  0  0  0  0
 27 28  1  0  0  0  0
 28 29  1  0  0  0  0
 28 30  1  0  0  0  0
 28 54  1  0  0  0  0
 29 30  1  0  0  0  0
 29 55  1  0  0  0  0
 29 56  1  0  0  0  0
 30 57  1  0  0  0  0
 30 58  1  0  0  0  0
 31 32  1  0  0  0  0
 31 59  1  0  0  0  0
 31 60  1  0  0  0  0
 32 61  1  0  0  0  0
 32 62  1  0  0  0  0
 33 34  2  0  0  0  0
 33 63  1  0  0  0  0
 34 35  1  0  0  0  0
 34 37  1  0  0  0  0
 35 36  1  0  0  0  0
 36 64  1  0  0  0  0
 36 65  1  0  0  0  0
 36 66  1  0  0  0  0
 37 38  1  0  0  0  0
 38 39  1  0  0  0  0
 39 67  1  0  0  0  0
 39 68  1  0  0  0  0
 39 69  1  0  0  0  0
M  END
>  <Line_Number>
192


> <IC50>
2080

$$$$
