386827
 OpenBabel09092522103D

 89 94  0  0  0  0  0  0  0  0999 V2000
    6.3476    0.3121    5.1906 C   0  0  0  0  0  0  0  0  0  0  0  0
    7.3066    1.2377    5.6920 O   0  0  0  0  0  0  0  0  0  0  0  0
    7.2477    2.5204    5.2077 C   0  0  0  0  0  0  0  0  0  0  0  0
    6.0597    3.0611    4.6955 C   0  0  0  0  0  0  0  0  0  0  0  0
    5.9670    4.3976    4.2893 C   0  0  0  0  0  0  0  0  0  0  0  0
    4.7198    4.9436    3.7200 C   0  0  0  0  0  0  0  0  0  0  0  0
    3.5020    4.5221    4.0939 C   0  0  0  0  0  0  0  0  0  0  0  0
    2.2553    5.0934    3.5089 C   0  0  0  0  0  0  0  0  0  0  0  0
    2.2525    5.7001    2.4458 O   0  0  0  0  0  0  0  0  0  0  0  0
    0.9914    4.8510    4.2638 C   0  0  0  0  0  0  0  0  0  0  0  0
    1.0011    4.7283    5.6560 C   0  0  0  0  0  0  0  0  0  0  0  0
   -0.1854    4.4927    6.3535 C   0  0  0  0  0  0  0  0  0  0  0  0
   -1.4113    4.3978    5.6924 C   0  0  0  0  0  0  0  0  0  0  0  0
   -2.6367    4.1743    6.3635 N   0  0  0  0  0  0  0  0  0  0  0  0
   -2.8357    4.3008    7.7436 C   0  0  0  0  0  0  0  0  0  0  0  0
   -1.9916    4.6886    8.5477 O   0  0  0  0  0  0  0  0  0  0  0  0
   -4.2473    3.9559    8.2444 C   0  0  0  0  0  0  0  0  0  0  0  0
   -4.3511    2.5427    8.6801 N   0  0  0  0  0  0  0  0  0  0  0  0
   -5.7085    2.2461    9.2159 C   0  0  0  0  0  0  0  0  0  0  0  0
   -6.0854    2.9725   10.5340 C   0  0  0  0  0  0  0  0  0  0  0  0
   -5.0494    2.8310   11.5661 N   0  0  0  0  0  0  0  0  0  0  0  0
   -5.2807    2.2800   12.8214 C   0  0  0  0  0  0  0  0  0  0  0  0
   -4.4957    2.7218   13.9071 C   0  0  0  0  0  0  0  0  0  0  0  0
   -4.5122    2.0788   15.1469 C   0  0  0  0  0  0  0  0  0  0  0  0
   -5.2893    0.9115   15.2791 C   0  0  0  0  0  0  0  0  0  0  0  0
   -6.2219    0.5689   14.3034 C   0  0  0  0  0  0  0  0  0  0  0  0
   -6.2245    1.2709   13.0960 C   0  0  0  0  0  0  0  0  0  0  0  0
   -7.1035    0.8783   12.1608 F   0  0  0  0  0  0  0  0  0  0  0  0
   -5.0069    0.0156   16.4491 C   0  0  0  0  0  0  0  0  0  0  0  0
   -5.6396   -1.0129   16.6475 O   0  0  0  0  0  0  0  0  0  0  0  0
   -3.8978    0.4644   17.3580 C   0  0  0  0  0  0  0  0  0  0  0  0
   -2.5066   -0.0775   17.1926 C   0  0  0  0  0  0  0  0  0  0  0  0
   -2.2335   -1.0245   16.4647 O   0  0  0  0  0  0  0  0  0  0  0  0
   -1.5665    0.5784   17.9617 N   0  0  0  0  0  0  0  0  0  0  0  0
   -0.2183    0.1842   17.8854 O   0  0  0  0  0  0  0  0  0  0  0  0
   -3.9458    1.8100   17.4704 C   0  0  0  0  0  0  0  0  0  0  0  0
   -3.8106    2.5853   16.2924 N   0  0  0  0  0  0  0  0  0  0  0  0
   -2.4744    3.1951   16.0992 C   0  0  0  0  0  0  0  0  0  0  0  0
   -1.9080    4.1447   17.1276 C   0  0  0  0  0  0  0  0  0  0  0  0
   -2.2898    4.6520   15.7712 C   0  0  0  0  0  0  0  0  0  0  0  0
   -3.6413    2.9430   11.1160 C   0  0  0  0  0  0  0  0  0  0  0  0
   -3.3990    2.2126    9.7719 C   0  0  0  0  0  0  0  0  0  0  0  0
   -1.4204    4.5211    4.2888 C   0  0  0  0  0  0  0  0  0  0  0  0
   -0.2279    4.7626    3.5809 C   0  0  0  0  0  0  0  0  0  0  0  0
    7.0946    5.2100    4.4090 C   0  0  0  0  0  0  0  0  0  0  0  0
    8.2877    4.7033    4.9512 C   0  0  0  0  0  0  0  0  0  0  0  0
    9.4142    5.4790    5.1106 O   0  0  0  0  0  0  0  0  0  0  0  0
    9.1745    6.8488    5.4225 C   0  0  0  0  0  0  0  0  0  0  0  0
    8.3858    3.3402    5.3108 C   0  0  0  0  0  0  0  0  0  0  0  0
    9.6101    2.9425    5.7997 O   0  0  0  0  0  0  0  0  0  0  0  0
   10.0068    1.6028    5.5256 C   0  0  0  0  0  0  0  0  0  0  0  0
    6.5761   -0.6714    5.6106 H   0  0  0  0  0  0  0  0  0  0  0  0
    6.4125    0.2409    4.0997 H   0  0  0  0  0  0  0  0  0  0  0  0
    5.3319    0.5652    5.5115 H   0  0  0  0  0  0  0  0  0  0  0  0
    5.1752    2.4416    4.6179 H   0  0  0  0  0  0  0  0  0  0  0  0
    4.8260    5.7354    2.9813 H   0  0  0  0  0  0  0  0  0  0  0  0
    3.3746    3.7495    4.8421 H   0  0  0  0  0  0  0  0  0  0  0  0
    1.9135    4.8272    6.2321 H   0  0  0  0  0  0  0  0  0  0  0  0
   -0.1134    4.3728    7.4307 H   0  0  0  0  0  0  0  0  0  0  0  0
   -3.4491    3.9695    5.8003 H   0  0  0  0  0  0  0  0  0  0  0  0
   -4.9709    4.1607    7.4472 H   0  0  0  0  0  0  0  0  0  0  0  0
   -4.4627    4.6614    9.0563 H   0  0  0  0  0  0  0  0  0  0  0  0
   -5.7645    1.1619    9.3971 H   0  0  0  0  0  0  0  0  0  0  0  0
   -6.4610    2.4553    8.4502 H   0  0  0  0  0  0  0  0  0  0  0  0
   -7.0715    2.6370   10.8668 H   0  0  0  0  0  0  0  0  0  0  0  0
   -6.2053    4.0433   10.3317 H   0  0  0  0  0  0  0  0  0  0  0  0
   -3.8627    3.5930   13.7683 H   0  0  0  0  0  0  0  0  0  0  0  0
   -6.9091   -0.2604   14.4436 H   0  0  0  0  0  0  0  0  0  0  0  0
   -1.7676    1.3705   18.5619 H   0  0  0  0  0  0  0  0  0  0  0  0
   -0.2876   -0.7860   17.7836 H   0  0  0  0  0  0  0  0  0  0  0  0
   -4.8994    2.1862   17.8605 H   0  0  0  0  0  0  0  0  0  0  0  0
   -1.7656    2.5002   15.6496 H   0  0  0  0  0  0  0  0  0  0  0  0
   -0.8524    4.0680   17.3611 H   0  0  0  0  0  0  0  0  0  0  0  0
   -2.5296    4.4452   17.9629 H   0  0  0  0  0  0  0  0  0  0  0  0
   -1.4882    4.9171   15.0910 H   0  0  0  0  0  0  0  0  0  0  0  0
   -3.1650    5.2854   15.6984 H   0  0  0  0  0  0  0  0  0  0  0  0
   -2.9443    2.5033   11.8415 H   0  0  0  0  0  0  0  0  0  0  0  0
   -3.3835    4.0034   11.0311 H   0  0  0  0  0  0  0  0  0  0  0  0
   -3.4680    1.1298    9.9531 H   0  0  0  0  0  0  0  0  0  0  0  0
   -2.3629    2.3640    9.4491 H   0  0  0  0  0  0  0  0  0  0  0  0
   -2.3502    4.4617    3.7268 H   0  0  0  0  0  0  0  0  0  0  0  0
   -0.2542    4.8822    2.4997 H   0  0  0  0  0  0  0  0  0  0  0  0
    7.0378    6.2421    4.0777 H   0  0  0  0  0  0  0  0  0  0  0  0
   10.1103    7.2807    5.7908 H   0  0  0  0  0  0  0  0  0  0  0  0
    8.4225    6.9616    6.2121 H   0  0  0  0  0  0  0  0  0  0  0  0
    8.8858    7.4067    4.5261 H   0  0  0  0  0  0  0  0  0  0  0  0
   11.0922    1.5406    5.6572 H   0  0  0  0  0  0  0  0  0  0  0  0
    9.7831    1.3043    4.4950 H   0  0  0  0  0  0  0  0  0  0  0  0
    9.5665    0.9099    6.2480 H   0  0  0  0  0  0  0  0  0  0  0  0
  1  2  1  0  0  0  0
  1 52  1  0  0  0  0
  1 53  1  0  0  0  0
  1 54  1  0  0  0  0
  2  3  1  0  0  0  0
  3  4  1  0  0  0  0
  3 49  2  0  0  0  0
  4  5  2  0  0  0  0
  4 55  1  0  0  0  0
  5  6  1  0  0  0  0
  5 45  1  0  0  0  0
  6  7  2  0  0  0  0
  6 56  1  0  0  0  0
  7  8  1  0  0  0  0
  7 57  1  0  0  0  0
  8  9  2  0  0  0  0
  8 10  1  0  0  0  0
 10 11  1  0  0  0  0
 10 44  2  0  0  0  0
 11 12  2  0  0  0  0
 11 58  1  0  0  0  0
 12 13  1  0  0  0  0
 12 59  1  0  0  0  0
 13 14  1  0  0  0  0
 13 43  2  0  0  0  0
 14 15  1  0  0  0  0
 14 60  1  0  0  0  0
 15 16  2  0  0  0  0
 15 17  1  0  0  0  0
 17 18  1  0  0  0  0
 17 61  1  0  0  0  0
 17 62  1  0  0  0  0
 18 19  1  0  0  0  0
 18 42  1  0  0  0  0
 19 20  1  0  0  0  0
 19 63  1  0  0  0  0
 19 64  1  0  0  0  0
 20 21  1  0  0  0  0
 20 65  1  0  0  0  0
 20 66  1  0  0  0  0
 21 22  1  0  0  0  0
 21 41  1  0  0  0  0
 22 23  1  0  0  0  0
 22 27  2  0  0  0  0
 23 24  2  0  0  0  0
 23 67  1  0  0  0  0
 24 25  1  0  0  0  0
 24 37  1  0  0  0  0
 25 26  2  0  0  0  0
 25 29  1  0  0  0  0
 26 27  1  0  0  0  0
 26 68  1  0  0  0  0
 27 28  1  0  0  0  0
 29 30  2  0  0  0  0
 29 31  1  0  0  0  0
 31 32  1  0  0  0  0
 31 36  2  0  0  0  0
 32 33  2  0  0  0  0
 32 34  1  0  0  0  0
 34 35  1  0  0  0  0
 34 69  1  0  0  0  0
 35 70  1  0  0  0  0
 36 37  1  0  0  0  0
 36 71  1  0  0  0  0
 37 38  1  0  0  0  0
 38 39  1  0  0  0  0
 38 40  1  0  0  0  0
 38 72  1  0  0  0  0
 39 40  1  0  0  0  0
 39 73  1  0  0  0  0
 39 74  1  0  0  0  0
 40 75  1  0  0  0  0
 40 76  1  0  0  0  0
 41 42  1  0  0  0  0
 41 77  1  0  0  0  0
 41 78  1  0  0  0  0
 42 79  1  0  0  0  0
 42 80  1  0  0  0  0
 43 44  1  0  0  0  0
 43 81  1  0  0  0  0
 44 82  1  0  0  0  0
 45 46  2  0  0  0  0
 45 83  1  0  0  0  0
 46 47  1  0  0  0  0
 46 49  1  0  0  0  0
 47 48  1  0  0  0  0
 48 84  1  0  0  0  0
 48 85  1  0  0  0  0
 48 86  1  0  0  0  0
 49 50  1  0  0  0  0
 50 51  1  0  0  0  0
 51 87  1  0  0  0  0
 51 88  1  0  0  0  0
 51 89  1  0  0  0  0
M  END
>  <Line_Number>
194


> <IC50>
949250

$$$$
