54685433.0
 OpenBabel09092522103D

 21 22  0  0  0  0  0  0  0  0999 V2000
    1.9419   -0.6856    1.0882 O   0  0  0  0  0  0  0  0  0  0  0  0
    0.9420   -0.2404    0.5526 C   0  0  0  0  0  0  0  0  0  0  0  0
    0.6747    1.0939    0.4354 O   0  0  0  0  0  0  0  0  0  0  0  0
   -0.5634    1.2648   -0.2382 C   0  0  0  0  0  0  0  0  0  0  0  0
   -1.0176   -0.1138   -0.5022 C   0  0  0  0  0  0  0  0  0  0  0  0
   -2.2185   -0.3607   -1.1178 O   0  0  0  0  0  0  0  0  0  0  0  0
   -0.1514   -1.0310   -0.0605 C   0  0  0  0  0  0  0  0  0  0  0  0
   -0.2369   -2.4958   -0.1284 C   0  0  0  0  0  0  0  0  0  0  0  0
   -0.8930   -3.1333   -1.1946 C   0  0  0  0  0  0  0  0  0  0  0  0
   -0.9688   -4.5281   -1.2712 C   0  0  0  0  0  0  0  0  0  0  0  0
   -0.3791   -5.3056   -0.2807 C   0  0  0  0  0  0  0  0  0  0  0  0
   -0.4758   -7.1898   -0.3833 Br  0  0  0  0  0  0  0  0  0  0  0  0
    0.2838   -4.7007    0.7823 C   0  0  0  0  0  0  0  0  0  0  0  0
    0.3539   -3.3043    0.8557 C   0  0  0  0  0  0  0  0  0  0  0  0
   -0.3992    1.8257   -1.1632 H   0  0  0  0  0  0  0  0  0  0  0  0
   -1.2562    1.8113    0.4079 H   0  0  0  0  0  0  0  0  0  0  0  0
   -2.6837    0.4799   -1.2761 H   0  0  0  0  0  0  0  0  0  0  0  0
   -1.3537   -2.5505   -1.9893 H   0  0  0  0  0  0  0  0  0  0  0  0
   -1.4867   -4.9895   -2.1074 H   0  0  0  0  0  0  0  0  0  0  0  0
    0.7524   -5.3001    1.5586 H   0  0  0  0  0  0  0  0  0  0  0  0
    0.8797   -2.8624    1.7005 H   0  0  0  0  0  0  0  0  0  0  0  0
  1  2  2  0  0  0  0
  2  3  1  0  0  0  0
  2  7  1  0  0  0  0
  3  4  1  0  0  0  0
  4  5  1  0  0  0  0
  4 15  1  0  0  0  0
  4 16  1  0  0  0  0
  5  6  1  0  0  0  0
  5  7  2  0  0  0  0
  6 17  1  0  0  0  0
  7  8  1  0  0  0  0
  8  9  1  0  0  0  0
  8 14  2  0  0  0  0
  9 10  2  0  0  0  0
  9 18  1  0  0  0  0
 10 11  1  0  0  0  0
 10 19  1  0  0  0  0
 11 12  1  0  0  0  0
 11 13  2  0  0  0  0
 13 14  1  0  0  0  0
 13 20  1  0  0  0  0
 14 21  1  0  0  0  0
M  END
>  <Line_Number>
195


> <IC50>
16800

$$$$
