85518325.0
 OpenBabel09092522103D

 21 22  0  0  0  0  0  0  0  0999 V2000
    1.9375   -0.6634    1.0841 O   0  0  0  0  0  0  0  0  0  0  0  0
    0.9375   -0.2284    0.5403 C   0  0  0  0  0  0  0  0  0  0  0  0
    0.6646    1.1031    0.4073 O   0  0  0  0  0  0  0  0  0  0  0  0
   -0.5735    1.2599   -0.2714 C   0  0  0  0  0  0  0  0  0  0  0  0
   -1.0190   -0.1233   -0.5220 C   0  0  0  0  0  0  0  0  0  0  0  0
   -2.2180   -0.3852   -1.1344 O   0  0  0  0  0  0  0  0  0  0  0  0
   -0.1494   -1.0314   -0.0672 C   0  0  0  0  0  0  0  0  0  0  0  0
   -0.2363   -2.4968   -0.1109 C   0  0  0  0  0  0  0  0  0  0  0  0
   -0.8967   -3.1509   -1.1647 C   0  0  0  0  0  0  0  0  0  0  0  0
   -0.9914   -4.5457   -1.2077 C   0  0  0  0  0  0  0  0  0  0  0  0
   -0.4156   -5.3080   -0.1975 C   0  0  0  0  0  0  0  0  0  0  0  0
   -0.5369   -7.0227   -0.2440 Cl  0  0  0  0  0  0  0  0  0  0  0  0
    0.2579   -4.6864    0.8492 C   0  0  0  0  0  0  0  0  0  0  0  0
    0.3475   -3.2895    0.8900 C   0  0  0  0  0  0  0  0  0  0  0  0
   -0.4107    1.8131   -1.2009 H   0  0  0  0  0  0  0  0  0  0  0  0
   -1.2713    1.8081    0.3683 H   0  0  0  0  0  0  0  0  0  0  0  0
   -2.6889    0.4508   -1.3021 H   0  0  0  0  0  0  0  0  0  0  0  0
   -1.3498   -2.5811   -1.9734 H   0  0  0  0  0  0  0  0  0  0  0  0
   -1.5160   -5.0234   -2.0305 H   0  0  0  0  0  0  0  0  0  0  0  0
    0.7159   -5.2769    1.6383 H   0  0  0  0  0  0  0  0  0  0  0  0
    0.8792   -2.8351    1.7246 H   0  0  0  0  0  0  0  0  0  0  0  0
  1  2  2  0  0  0  0
  2  3  1  0  0  0  0
  2  7  1  0  0  0  0
  3  4  1  0  0  0  0
  4  5  1  0  0  0  0
  4 15  1  0  0  0  0
  4 16  1  0  0  0  0
  5  6  1  0  0  0  0
  5  7  2  0  0  0  0
  6 17  1  0  0  0  0
  7  8  1  0  0  0  0
  8  9  1  0  0  0  0
  8 14  2  0  0  0  0
  9 10  2  0  0  0  0
  9 18  1  0  0  0  0
 10 11  1  0  0  0  0
 10 19  1  0  0  0  0
 11 12  1  0  0  0  0
 11 13  2  0  0  0  0
 13 14  1  0  0  0  0
 13 20  1  0  0  0  0
 14 21  1  0  0  0  0
M  END
>  <Line_Number>
199


> <IC50>
18500

$$$$
