52943499.0
 OpenBabel09092522103D

 57 57  0  0  0  0  0  0  0  0999 V2000
    0.8771    0.0560   -0.0290 C   0  0  0  0  0  0  0  0  0  0  0  0
    2.3943    0.0625   -0.0208 C   0  0  0  0  0  0  0  0  0  0  0  0
    2.9268    1.3734    0.5439 C   0  0  0  0  0  0  0  0  0  0  0  0
    4.4498    1.3817    0.5529 C   0  0  0  0  0  0  0  0  0  0  0  0
    4.9691    2.6952    1.1208 C   0  0  0  0  0  0  0  0  0  0  0  0
    6.4892    2.7041    1.1301 C   0  0  0  0  0  0  0  0  0  0  0  0
    7.0034    4.0169    1.6978 C   0  0  0  0  0  0  0  0  0  0  0  0
    8.5220    4.0206    1.7048 C   0  0  0  0  0  0  0  0  0  0  0  0
    9.0418    5.3304    2.2715 C   0  0  0  0  0  0  0  0  0  0  0  0
   10.5615    5.3235    2.2733 C   0  0  0  0  0  0  0  0  0  0  0  0
   11.0863    6.6289    2.8378 C   0  0  0  0  0  0  0  0  0  0  0  0
   12.6107    6.6319    2.8459 C   0  0  0  0  0  0  0  0  0  0  0  0
   13.1115    7.9519    3.4109 C   0  0  0  0  0  0  0  0  0  0  0  0
   14.6350    7.9984    3.4451 C   0  0  0  0  0  0  0  0  0  0  0  0
   15.1281    9.3029    4.0030 C   0  0  0  0  0  0  0  0  0  0  0  0
   15.3419   10.4082    3.1576 C   0  0  0  0  0  0  0  0  0  0  0  0
   15.7296   11.6527    3.6724 C   0  0  0  0  0  0  0  0  0  0  0  0
   15.9192   11.7955    5.0422 C   0  0  0  0  0  0  0  0  0  0  0  0
   16.2865   12.9833    5.6062 O   0  0  0  0  0  0  0  0  0  0  0  0
   15.7300   10.7044    5.8783 C   0  0  0  0  0  0  0  0  0  0  0  0
   15.9115   10.7846    7.2305 O   0  0  0  0  0  0  0  0  0  0  0  0
   15.3372    9.4751    5.3719 C   0  0  0  0  0  0  0  0  0  0  0  0
   15.1639    8.4632    6.2673 O   0  0  0  0  0  0  0  0  0  0  0  0
    0.5032   -0.8885   -0.4358 H   0  0  0  0  0  0  0  0  0  0  0  0
    0.4872    0.8730   -0.6452 H   0  0  0  0  0  0  0  0  0  0  0  0
    0.4815    0.1729    0.9854 H   0  0  0  0  0  0  0  0  0  0  0  0
    2.7657   -0.0821   -1.0426 H   0  0  0  0  0  0  0  0  0  0  0  0
    2.7600   -0.7789    0.5803 H   0  0  0  0  0  0  0  0  0  0  0  0
    2.5527    1.5176    1.5648 H   0  0  0  0  0  0  0  0  0  0  0  0
    2.5586    2.2139   -0.0568 H   0  0  0  0  0  0  0  0  0  0  0  0
    4.8303    1.2439   -0.4666 H   0  0  0  0  0  0  0  0  0  0  0  0
    4.8246    0.5451    1.1550 H   0  0  0  0  0  0  0  0  0  0  0  0
    4.5922    2.8356    2.1413 H   0  0  0  0  0  0  0  0  0  0  0  0
    4.5979    3.5345    0.5200 H   0  0  0  0  0  0  0  0  0  0  0  0
    6.8700    2.5662    0.1106 H   0  0  0  0  0  0  0  0  0  0  0  0
    6.8642    1.8673    1.7321 H   0  0  0  0  0  0  0  0  0  0  0  0
    6.6261    4.1567    2.7183 H   0  0  0  0  0  0  0  0  0  0  0  0
    6.6318    4.8558    1.0966 H   0  0  0  0  0  0  0  0  0  0  0  0
    8.9003    3.8810    0.6846 H   0  0  0  0  0  0  0  0  0  0  0  0
    8.8944    3.1823    2.3063 H   0  0  0  0  0  0  0  0  0  0  0  0
    8.6658    5.4715    3.2922 H   0  0  0  0  0  0  0  0  0  0  0  0
    8.6710    6.1709    1.6707 H   0  0  0  0  0  0  0  0  0  0  0  0
   10.9335    5.1823    1.2517 H   0  0  0  0  0  0  0  0  0  0  0  0
   10.9284    4.4822    2.8734 H   0  0  0  0  0  0  0  0  0  0  0  0
   10.7107    6.7721    3.8581 H   0  0  0  0  0  0  0  0  0  0  0  0
   10.7176    7.4679    2.2366 H   0  0  0  0  0  0  0  0  0  0  0  0
   12.9852    6.4915    1.8251 H   0  0  0  0  0  0  0  0  0  0  0  0
   12.9811    5.7929    3.4469 H   0  0  0  0  0  0  0  0  0  0  0  0
   12.7101    8.0897    4.4240 H   0  0  0  0  0  0  0  0  0  0  0  0
   12.7172    8.7762    2.8009 H   0  0  0  0  0  0  0  0  0  0  0  0
   15.0395    7.8618    2.4308 H   0  0  0  0  0  0  0  0  0  0  0  0
   15.0217    7.1591    4.0351 H   0  0  0  0  0  0  0  0  0  0  0  0
   15.1998   10.3042    2.0814 H   0  0  0  0  0  0  0  0  0  0  0  0
   15.8713   12.4865    2.9928 H   0  0  0  0  0  0  0  0  0  0  0  0
   16.3593   13.6459    4.8968 H   0  0  0  0  0  0  0  0  0  0  0  0
   16.1720   11.7180    7.3745 H   0  0  0  0  0  0  0  0  0  0  0  0
   15.3890    8.8590    7.1359 H   0  0  0  0  0  0  0  0  0  0  0  0
  1  2  1  0  0  0  0
  1 24  1  0  0  0  0
  1 25  1  0  0  0  0
  1 26  1  0  0  0  0
  2  3  1  0  0  0  0
  2 27  1  0  0  0  0
  2 28  1  0  0  0  0
  3  4  1  0  0  0  0
  3 29  1  0  0  0  0
  3 30  1  0  0  0  0
  4  5  1  0  0  0  0
  4 31  1  0  0  0  0
  4 32  1  0  0  0  0
  5  6  1  0  0  0  0
  5 33  1  0  0  0  0
  5 34  1  0  0  0  0
  6  7  1  0  0  0  0
  6 35  1  0  0  0  0
  6 36  1  0  0  0  0
  7  8  1  0  0  0  0
  7 37  1  0  0  0  0
  7 38  1  0  0  0  0
  8  9  1  0  0  0  0
  8 39  1  0  0  0  0
  8 40  1  0  0  0  0
  9 10  1  0  0  0  0
  9 41  1  0  0  0  0
  9 42  1  0  0  0  0
 10 11  1  0  0  0  0
 10 43  1  0  0  0  0
 10 44  1  0  0  0  0
 11 12  1  0  0  0  0
 11 45  1  0  0  0  0
 11 46  1  0  0  0  0
 12 13  1  0  0  0  0
 12 47  1  0  0  0  0
 12 48  1  0  0  0  0
 13 14  1  0  0  0  0
 13 49  1  0  0  0  0
 13 50  1  0  0  0  0
 14 15  1  0  0  0  0
 14 51  1  0  0  0  0
 14 52  1  0  0  0  0
 15 16  1  0  0  0  0
 15 22  2  0  0  0  0
 16 17  2  0  0  0  0
 16 53  1  0  0  0  0
 17 18  1  0  0  0  0
 17 54  1  0  0  0  0
 18 19  1  0  0  0  0
 18 20  2  0  0  0  0
 19 55  1  0  0  0  0
 20 21  1  0  0  0  0
 20 22  1  0  0  0  0
 21 56  1  0  0  0  0
 22 23  1  0  0  0  0
 23 57  1  0  0  0  0
M  END
>  <Line_Number>
19


> <IC50>
250000

$$$$
