85518320.0
 OpenBabel09092522103D

 21 22  0  0  0  0  0  0  0  0999 V2000
    1.9358   -0.6088   -1.1408 O   0  0  0  0  0  0  0  0  0  0  0  0
    0.9321   -0.2024   -0.5880 C   0  0  0  0  0  0  0  0  0  0  0  0
    0.6612    1.1141   -0.3363 O   0  0  0  0  0  0  0  0  0  0  0  0
   -0.5793    1.2153    0.3566 C   0  0  0  0  0  0  0  0  0  0  0  0
   -1.0063   -0.1874    0.5237 C   0  0  0  0  0  0  0  0  0  0  0  0
   -2.1569   -0.5291    1.1848 O   0  0  0  0  0  0  0  0  0  0  0  0
   -0.1577   -1.0366   -0.0526 C   0  0  0  0  0  0  0  0  0  0  0  0
   -0.2551   -2.4879   -0.1512 C   0  0  0  0  0  0  0  0  0  0  0  0
    0.3007   -3.2774    0.8675 C   0  0  0  0  0  0  0  0  0  0  0  0
    0.1902   -4.6705    0.8326 C   0  0  0  0  0  0  0  0  0  0  0  0
   -0.4824   -5.2930   -0.2165 C   0  0  0  0  0  0  0  0  0  0  0  0
   -1.0277   -4.5236   -1.2435 C   0  0  0  0  0  0  0  0  0  0  0  0
   -0.9073   -3.1298   -1.2178 C   0  0  0  0  0  0  0  0  0  0  0  0
   -1.5686   -2.2455   -2.5511 Cl  0  0  0  0  0  0  0  0  0  0  0  0
   -1.2859    1.7894   -0.2508 H   0  0  0  0  0  0  0  0  0  0  0  0
   -0.4204    1.7200    1.3146 H   0  0  0  0  0  0  0  0  0  0  0  0
   -2.6405    0.2789    1.4355 H   0  0  0  0  0  0  0  0  0  0  0  0
    0.8294   -2.8120    1.6974 H   0  0  0  0  0  0  0  0  0  0  0  0
    0.6310   -5.2694    1.6263 H   0  0  0  0  0  0  0  0  0  0  0  0
   -0.5736   -6.3764   -0.2399 H   0  0  0  0  0  0  0  0  0  0  0  0
   -1.5415   -5.0167   -2.0649 H   0  0  0  0  0  0  0  0  0  0  0  0
  1  2  2  0  0  0  0
  2  3  1  0  0  0  0
  2  7  1  0  0  0  0
  3  4  1  0  0  0  0
  4  5  1  0  0  0  0
  4 15  1  0  0  0  0
  4 16  1  0  0  0  0
  5  6  1  0  0  0  0
  5  7  2  0  0  0  0
  6 17  1  0  0  0  0
  7  8  1  0  0  0  0
  8  9  1  0  0  0  0
  8 13  2  0  0  0  0
  9 10  2  0  0  0  0
  9 18  1  0  0  0  0
 10 11  1  0  0  0  0
 10 19  1  0  0  0  0
 11 12  2  0  0  0  0
 11 20  1  0  0  0  0
 12 13  1  0  0  0  0
 12 21  1  0  0  0  0
 13 14  1  0  0  0  0
M  END
>  <Line_Number>
200


> <IC50>
100000

$$$$
