122185041.0
 OpenBabel09092522103D

 35 36  0  0  0  0  0  0  0  0999 V2000
    1.0044   -0.5098   -0.9951 C   0  0  0  0  0  0  0  0  0  0  0  0
    2.5171   -0.5401   -1.1021 C   0  0  0  0  0  0  0  0  0  0  0  0
    3.0090    0.7995   -1.1671 O   0  0  0  0  0  0  0  0  0  0  0  0
    4.3605    0.9621   -1.3455 C   0  0  0  0  0  0  0  0  0  0  0  0
    5.2611   -0.1130   -1.3678 C   0  0  0  0  0  0  0  0  0  0  0  0
    6.6200    0.0893   -1.6181 C   0  0  0  0  0  0  0  0  0  0  0  0
    7.1100    1.3721   -1.8549 C   0  0  0  0  0  0  0  0  0  0  0  0
    8.5235    1.5503   -2.1367 C   0  0  0  0  0  0  0  0  0  0  0  0
    9.1522    1.5021   -3.3114 C   0  0  0  0  0  0  0  0  0  0  0  0
    8.6052    1.3214   -4.5525 O   0  0  0  0  0  0  0  0  0  0  0  0
   10.6149    1.6247   -3.1585 C   0  0  0  0  0  0  0  0  0  0  0  0
   10.7990    1.7662   -1.7497 O   0  0  0  0  0  0  0  0  0  0  0  0
    9.5857    1.7152   -1.1286 C   0  0  0  0  0  0  0  0  0  0  0  0
    9.4174    1.7844    0.0754 O   0  0  0  0  0  0  0  0  0  0  0  0
    6.2256    2.4531   -1.8220 C   0  0  0  0  0  0  0  0  0  0  0  0
    4.8611    2.2619   -1.5381 C   0  0  0  0  0  0  0  0  0  0  0  0
    4.1466    3.4340   -1.5271 O   0  0  0  0  0  0  0  0  0  0  0  0
    3.0310    3.4993   -0.6373 C   0  0  0  0  0  0  0  0  0  0  0  0
    2.8483    4.9473   -0.2101 C   0  0  0  0  0  0  0  0  0  0  0  0
    0.6035   -1.5275   -0.9591 H   0  0  0  0  0  0  0  0  0  0  0  0
    0.5657    0.0123   -1.8510 H   0  0  0  0  0  0  0  0  0  0  0  0
    0.6907    0.0246   -0.0930 H   0  0  0  0  0  0  0  0  0  0  0  0
    2.7915   -1.0890   -2.0107 H   0  0  0  0  0  0  0  0  0  0  0  0
    2.9205   -1.0459   -0.2171 H   0  0  0  0  0  0  0  0  0  0  0  0
    4.9415   -1.1348   -1.1924 H   0  0  0  0  0  0  0  0  0  0  0  0
    7.2889   -0.7697   -1.6232 H   0  0  0  0  0  0  0  0  0  0  0  0
    7.6344    1.2825   -4.4648 H   0  0  0  0  0  0  0  0  0  0  0  0
   11.0148    2.5072   -3.6642 H   0  0  0  0  0  0  0  0  0  0  0  0
   11.1414    0.7280   -3.4997 H   0  0  0  0  0  0  0  0  0  0  0  0
    6.5884    3.4646   -1.9940 H   0  0  0  0  0  0  0  0  0  0  0  0
    3.1857    2.8935    0.2631 H   0  0  0  0  0  0  0  0  0  0  0  0
    2.1321    3.1679   -1.1675 H   0  0  0  0  0  0  0  0  0  0  0  0
    3.7242    5.2954    0.3480 H   0  0  0  0  0  0  0  0  0  0  0  0
    1.9643    5.0568    0.4253 H   0  0  0  0  0  0  0  0  0  0  0  0
    2.7429    5.6035   -1.0801 H   0  0  0  0  0  0  0  0  0  0  0  0
  1  2  1  0  0  0  0
  1 20  1  0  0  0  0
  1 21  1  0  0  0  0
  1 22  1  0  0  0  0
  2  3  1  0  0  0  0
  2 23  1  0  0  0  0
  2 24  1  0  0  0  0
  3  4  1  0  0  0  0
  4  5  1  0  0  0  0
  4 16  2  0  0  0  0
  5  6  2  0  0  0  0
  5 25  1  0  0  0  0
  6  7  1  0  0  0  0
  6 26  1  0  0  0  0
  7  8  1  0  0  0  0
  7 15  2  0  0  0  0
  8  9  2  0  0  0  0
  8 13  1  0  0  0  0
  9 10  1  0  0  0  0
  9 11  1  0  0  0  0
 10 27  1  0  0  0  0
 11 12  1  0  0  0  0
 11 28  1  0  0  0  0
 11 29  1  0  0  0  0
 12 13  1  0  0  0  0
 13 14  2  0  0  0  0
 15 16  1  0  0  0  0
 15 30  1  0  0  0  0
 16 17  1  0  0  0  0
 17 18  1  0  0  0  0
 18 19  1  0  0  0  0
 18 31  1  0  0  0  0
 18 32  1  0  0  0  0
 19 33  1  0  0  0  0
 19 34  1  0  0  0  0
 19 35  1  0  0  0  0
M  END
>  <Line_Number>
201


> <IC50>
23400

$$$$
