122185032.0
 OpenBabel09092522103D

 35 37  0  0  0  0  0  0  0  0999 V2000
    1.9903   -0.6702    0.9944 O   0  0  0  0  0  0  0  0  0  0  0  0
    0.9672   -0.2200    0.5119 C   0  0  0  0  0  0  0  0  0  0  0  0
    0.6914    1.1139    0.4246 O   0  0  0  0  0  0  0  0  0  0  0  0
   -0.5765    1.2899   -0.1956 C   0  0  0  0  0  0  0  0  0  0  0  0
   -1.0422   -0.0851   -0.4531 C   0  0  0  0  0  0  0  0  0  0  0  0
   -2.2658   -0.3358   -1.0189 O   0  0  0  0  0  0  0  0  0  0  0  0
   -0.1571   -1.0033   -0.0640 C   0  0  0  0  0  0  0  0  0  0  0  0
   -0.2396   -2.4604   -0.1549 C   0  0  0  0  0  0  0  0  0  0  0  0
   -0.9074   -3.1061   -1.2037 C   0  0  0  0  0  0  0  0  0  0  0  0
   -0.9198   -4.5000   -1.2954 C   0  0  0  0  0  0  0  0  0  0  0  0
   -0.2315   -5.2674   -0.3567 C   0  0  0  0  0  0  0  0  0  0  0  0
    0.4636   -4.6403    0.6739 C   0  0  0  0  0  0  0  0  0  0  0  0
    1.1935   -5.4490    1.5068 O   0  0  0  0  0  0  0  0  0  0  0  0
    2.2983   -4.7805    2.1295 C   0  0  0  0  0  0  0  0  0  0  0  0
    3.3261   -5.7819    2.5788 C   0  0  0  0  0  0  0  0  0  0  0  0
    4.6282   -5.7333    2.0600 C   0  0  0  0  0  0  0  0  0  0  0  0
    5.5979   -6.6297    2.5049 C   0  0  0  0  0  0  0  0  0  0  0  0
    5.2735   -7.5802    3.4707 C   0  0  0  0  0  0  0  0  0  0  0  0
    3.9806   -7.6377    3.9898 C   0  0  0  0  0  0  0  0  0  0  0  0
    3.0085   -6.7421    3.5456 C   0  0  0  0  0  0  0  0  0  0  0  0
    0.4096   -3.2499    0.7975 C   0  0  0  0  0  0  0  0  0  0  0  0
   -0.4489    1.8548   -1.1236 H   0  0  0  0  0  0  0  0  0  0  0  0
   -1.2402    1.8320    0.4842 H   0  0  0  0  0  0  0  0  0  0  0  0
   -2.7428    0.5025   -1.1511 H   0  0  0  0  0  0  0  0  0  0  0  0
   -1.4198   -2.5294   -1.9705 H   0  0  0  0  0  0  0  0  0  0  0  0
   -1.4469   -4.9824   -2.1144 H   0  0  0  0  0  0  0  0  0  0  0  0
   -0.2151   -6.3502   -0.4467 H   0  0  0  0  0  0  0  0  0  0  0  0
    1.9484   -4.2201    3.0056 H   0  0  0  0  0  0  0  0  0  0  0  0
    2.7782   -4.0833    1.4291 H   0  0  0  0  0  0  0  0  0  0  0  0
    4.8944   -4.9911    1.3100 H   0  0  0  0  0  0  0  0  0  0  0  0
    6.6048   -6.5814    2.0984 H   0  0  0  0  0  0  0  0  0  0  0  0
    6.0296   -8.2770    3.8188 H   0  0  0  0  0  0  0  0  0  0  0  0
    3.7286   -8.3784    4.7422 H   0  0  0  0  0  0  0  0  0  0  0  0
    2.0019   -6.7892    3.9564 H   0  0  0  0  0  0  0  0  0  0  0  0
    0.8976   -2.7639    1.6370 H   0  0  0  0  0  0  0  0  0  0  0  0
  1  2  2  0  0  0  0
  2  3  1  0  0  0  0
  2  7  1  0  0  0  0
  3  4  1  0  0  0  0
  4  5  1  0  0  0  0
  4 22  1  0  0  0  0
  4 23  1  0  0  0  0
  5  6  1  0  0  0  0
  5  7  2  0  0  0  0
  6 24  1  0  0  0  0
  7  8  1  0  0  0  0
  8  9  1  0  0  0  0
  8 21  2  0  0  0  0
  9 10  2  0  0  0  0
  9 25  1  0  0  0  0
 10 11  1  0  0  0  0
 10 26  1  0  0  0  0
 11 12  2  0  0  0  0
 11 27  1  0  0  0  0
 12 13  1  0  0  0  0
 12 21  1  0  0  0  0
 13 14  1  0  0  0  0
 14 15  1  0  0  0  0
 14 28  1  0  0  0  0
 14 29  1  0  0  0  0
 15 16  1  0  0  0  0
 15 20  2  0  0  0  0
 16 17  2  0  0  0  0
 16 30  1  0  0  0  0
 17 18  1  0  0  0  0
 17 31  1  0  0  0  0
 18 19  2  0  0  0  0
 18 32  1  0  0  0  0
 19 20  1  0  0  0  0
 19 33  1  0  0  0  0
 20 34  1  0  0  0  0
 21 35  1  0  0  0  0
M  END
>  <Line_Number>
202


> <IC50>
31500

$$$$
