43717960.0
 OpenBabel09092522103D

 31 32  0  0  0  0  0  0  0  0999 V2000
    0.9232    0.4465   -0.1682 O   0  0  0  0  0  0  0  0  0  0  0  0
    2.0733    0.0205   -0.3599 N   0  3  0  0  0  0  0  0  0  0  0  0
    2.7051   -0.6766    0.4484 O   0  5  0  0  0  0  0  0  0  0  0  0
    2.7305    0.3734   -1.6215 C   0  0  0  0  0  0  0  0  0  0  0  0
    2.0563    1.1686   -2.5536 C   0  0  0  0  0  0  0  0  0  0  0  0
    2.6880    1.4861   -3.7518 C   0  0  0  0  0  0  0  0  0  0  0  0
    3.9885    1.0294   -4.0033 C   0  0  0  0  0  0  0  0  0  0  0  0
    4.6963    0.2709   -3.0600 C   0  0  0  0  0  0  0  0  0  0  0  0
    5.9711   -0.2576   -3.3000 N   0  0  0  0  0  0  0  0  0  0  0  0
    6.8805    0.4717   -4.1797 C   0  0  0  0  0  0  0  0  0  0  0  0
    8.2010   -0.2595   -4.2758 C   0  0  0  0  0  0  0  0  0  0  0  0
    8.2512   -1.5733   -4.7806 C   0  0  0  0  0  0  0  0  0  0  0  0
    9.4706   -2.2436   -4.9239 C   0  0  0  0  0  0  0  0  0  0  0  0
   10.6451   -1.5891   -4.5778 C   0  0  0  0  0  0  0  0  0  0  0  0
   11.8695   -2.1838   -4.7084 O   0  0  0  0  0  0  0  0  0  0  0  0
   10.6058   -0.2875   -4.0858 C   0  0  0  0  0  0  0  0  0  0  0  0
   11.7679    0.3614   -3.7812 O   0  0  0  0  0  0  0  0  0  0  0  0
    9.3976    0.3766   -3.9157 C   0  0  0  0  0  0  0  0  0  0  0  0
    4.0309   -0.0887   -1.8797 C   0  0  0  0  0  0  0  0  0  0  0  0
    1.0471    1.5318   -2.3692 H   0  0  0  0  0  0  0  0  0  0  0  0
    2.1703    2.0818   -4.4997 H   0  0  0  0  0  0  0  0  0  0  0  0
    4.4271    1.2753   -4.9660 H   0  0  0  0  0  0  0  0  0  0  0  0
    6.4408   -0.5371   -2.4404 H   0  0  0  0  0  0  0  0  0  0  0  0
    7.0390    1.4856   -3.7918 H   0  0  0  0  0  0  0  0  0  0  0  0
    6.4791    0.5563   -5.1960 H   0  0  0  0  0  0  0  0  0  0  0  0
    7.3278   -2.0747   -5.0677 H   0  0  0  0  0  0  0  0  0  0  0  0
    9.4782   -3.2557   -5.3146 H   0  0  0  0  0  0  0  0  0  0  0  0
   11.7274   -3.1105   -4.9676 H   0  0  0  0  0  0  0  0  0  0  0  0
   12.4728   -0.2620   -4.0485 H   0  0  0  0  0  0  0  0  0  0  0  0
    9.4009    1.3884   -3.5199 H   0  0  0  0  0  0  0  0  0  0  0  0
    4.5365   -0.7261   -1.1578 H   0  0  0  0  0  0  0  0  0  0  0  0
  1  2  2  0  0  0  0
  2  3  1  0  0  0  0
  2  4  1  0  0  0  0
  4  5  1  0  0  0  0
  4 19  2  0  0  0  0
  5  6  2  0  0  0  0
  5 20  1  0  0  0  0
  6  7  1  0  0  0  0
  6 21  1  0  0  0  0
  7  8  2  0  0  0  0
  7 22  1  0  0  0  0
  8  9  1  0  0  0  0
  8 19  1  0  0  0  0
  9 10  1  0  0  0  0
  9 23  1  0  0  0  0
 10 11  1  0  0  0  0
 10 24  1  0  0  0  0
 10 25  1  0  0  0  0
 11 12  1  0  0  0  0
 11 18  2  0  0  0  0
 12 13  2  0  0  0  0
 12 26  1  0  0  0  0
 13 14  1  0  0  0  0
 13 27  1  0  0  0  0
 14 15  1  0  0  0  0
 14 16  2  0  0  0  0
 15 28  1  0  0  0  0
 16 17  1  0  0  0  0
 16 18  1  0  0  0  0
 17 29  1  0  0  0  0
 18 30  1  0  0  0  0
 19 31  1  0  0  0  0
M  CHG  2   2   1   3  -1
M  END
>  <Line_Number>
205


> <IC50>
5925

$$$$
