13462598.0
 OpenBabel09092522103D

 33 34  0  0  0  0  0  0  0  0999 V2000
    0.7992    0.3185   -0.0102 C   0  0  0  0  0  0  0  0  0  0  0  0
    2.2105    0.1447    0.0034 O   0  0  0  0  0  0  0  0  0  0  0  0
    2.9041    0.8249    0.9652 C   0  0  0  0  0  0  0  0  0  0  0  0
    2.3675    1.7299    1.8786 C   0  0  0  0  0  0  0  0  0  0  0  0
    3.1847    2.3191    2.8521 C   0  0  0  0  0  0  0  0  0  0  0  0
    4.5423    2.0030    2.9368 C   0  0  0  0  0  0  0  0  0  0  0  0
    5.4082    2.5388    3.8923 N   0  0  0  0  0  0  0  0  0  0  0  0
    4.8626    2.8925    5.1955 C   0  0  0  0  0  0  0  0  0  0  0  0
    5.9701    2.7961    6.2196 C   0  0  0  0  0  0  0  0  0  0  0  0
    6.6225    1.5677    6.4292 C   0  0  0  0  0  0  0  0  0  0  0  0
    7.6527    1.4491    7.3625 C   0  0  0  0  0  0  0  0  0  0  0  0
    8.0479    2.5599    8.1061 C   0  0  0  0  0  0  0  0  0  0  0  0
    7.3990    3.7855    7.9091 C   0  0  0  0  0  0  0  0  0  0  0  0
    7.8152    4.9585    8.6865 N   0  3  0  0  0  0  0  0  0  0  0  0
    8.7931    4.8359    9.4407 O   0  0  0  0  0  0  0  0  0  0  0  0
    7.1674    6.0053    8.5433 O   0  5  0  0  0  0  0  0  0  0  0  0
    6.3593    3.9102    6.9750 C   0  0  0  0  0  0  0  0  0  0  0  0
    5.0856    1.1585    1.9644 C   0  0  0  0  0  0  0  0  0  0  0  0
    4.2723    0.5593    0.9994 C   0  0  0  0  0  0  0  0  0  0  0  0
    0.3831   -0.3807   -0.7415 H   0  0  0  0  0  0  0  0  0  0  0  0
    0.5402    1.3333   -0.3282 H   0  0  0  0  0  0  0  0  0  0  0  0
    0.3523    0.0824    0.9616 H   0  0  0  0  0  0  0  0  0  0  0  0
    1.3163    1.9975    1.8683 H   0  0  0  0  0  0  0  0  0  0  0  0
    2.7322    3.0248    3.5419 H   0  0  0  0  0  0  0  0  0  0  0  0
    5.9659    3.2908    3.4917 H   0  0  0  0  0  0  0  0  0  0  0  0
    4.0660    2.2046    5.5068 H   0  0  0  0  0  0  0  0  0  0  0  0
    4.4417    3.9045    5.1656 H   0  0  0  0  0  0  0  0  0  0  0  0
    6.3296    0.6965    5.8419 H   0  0  0  0  0  0  0  0  0  0  0  0
    8.1492    0.4915    7.5019 H   0  0  0  0  0  0  0  0  0  0  0  0
    8.8578    2.4545    8.8259 H   0  0  0  0  0  0  0  0  0  0  0  0
    5.8577    4.8633    6.8266 H   0  0  0  0  0  0  0  0  0  0  0  0
    6.1473    0.9238    1.9845 H   0  0  0  0  0  0  0  0  0  0  0  0
    4.7089   -0.1307    0.2828 H   0  0  0  0  0  0  0  0  0  0  0  0
  1  2  1  0  0  0  0
  1 20  1  0  0  0  0
  1 21  1  0  0  0  0
  1 22  1  0  0  0  0
  2  3  1  0  0  0  0
  3  4  1  0  0  0  0
  3 19  2  0  0  0  0
  4  5  2  0  0  0  0
  4 23  1  0  0  0  0
  5  6  1  0  0  0  0
  5 24  1  0  0  0  0
  6  7  1  0  0  0  0
  6 18  2  0  0  0  0
  7  8  1  0  0  0  0
  7 25  1  0  0  0  0
  8  9  1  0  0  0  0
  8 26  1  0  0  0  0
  8 27  1  0  0  0  0
  9 10  1  0  0  0  0
  9 17  2  0  0  0  0
 10 11  2  0  0  0  0
 10 28  1  0  0  0  0
 11 12  1  0  0  0  0
 11 29  1  0  0  0  0
 12 13  2  0  0  0  0
 12 30  1  0  0  0  0
 13 14  1  0  0  0  0
 13 17  1  0  0  0  0
 14 15  2  0  0  0  0
 14 16  1  0  0  0  0
 17 31  1  0  0  0  0
 18 19  1  0  0  0  0
 18 32  1  0  0  0  0
 19 33  1  0  0  0  0
M  CHG  2  14   1  16  -1
M  END
>  <Line_Number>
206


> <IC50>
319200

$$$$
