43226460.0
 OpenBabel09092522103D

 30 31  0  0  0  0  0  0  0  0999 V2000
    0.9146   -0.0033    0.0701 O   0  0  0  0  0  0  0  0  0  0  0  0
    2.1513   -0.0526    0.1385 N   0  3  0  0  0  0  0  0  0  0  0  0
    2.7947   -1.0428    0.5156 O   0  5  0  0  0  0  0  0  0  0  0  0
    2.9048    1.1455   -0.2491 C   0  0  0  0  0  0  0  0  0  0  0  0
    2.2223    2.2899   -0.6764 C   0  0  0  0  0  0  0  0  0  0  0  0
    2.9457    3.4419   -1.0085 C   0  0  0  0  0  0  0  0  0  0  0  0
    4.3413    3.4720   -0.8949 C   0  0  0  0  0  0  0  0  0  0  0  0
    5.1250    4.5901   -1.1971 N   0  0  0  0  0  0  0  0  0  0  0  0
    4.5447    5.9106   -0.9718 C   0  0  0  0  0  0  0  0  0  0  0  0
    5.6158    6.9491   -0.7006 C   0  0  0  0  0  0  0  0  0  0  0  0
    5.3620    8.2933   -1.0185 C   0  0  0  0  0  0  0  0  0  0  0  0
    6.2886    9.2923   -0.7062 C   0  0  0  0  0  0  0  0  0  0  0  0
    7.4714    8.9485   -0.0647 C   0  0  0  0  0  0  0  0  0  0  0  0
    8.4008    9.8925    0.2612 O   0  0  0  0  0  0  0  0  0  0  0  0
    7.7388    7.6298    0.2746 C   0  0  0  0  0  0  0  0  0  0  0  0
    6.8095    6.6326   -0.0339 C   0  0  0  0  0  0  0  0  0  0  0  0
    5.0074    2.2941   -0.5306 C   0  0  0  0  0  0  0  0  0  0  0  0
    4.3010    1.1378   -0.1867 C   0  0  0  0  0  0  0  0  0  0  0  0
    1.1371    2.3068   -0.7500 H   0  0  0  0  0  0  0  0  0  0  0  0
    2.3946    4.3147   -1.3477 H   0  0  0  0  0  0  0  0  0  0  0  0
    5.5196    4.5145   -2.1333 H   0  0  0  0  0  0  0  0  0  0  0  0
    3.8776    5.9084   -0.1004 H   0  0  0  0  0  0  0  0  0  0  0  0
    3.9643    6.2004   -1.8562 H   0  0  0  0  0  0  0  0  0  0  0  0
    4.4296    8.5749   -1.5023 H   0  0  0  0  0  0  0  0  0  0  0  0
    6.0614   10.3234   -0.9570 H   0  0  0  0  0  0  0  0  0  0  0  0
    8.0802   10.7589   -0.0394 H   0  0  0  0  0  0  0  0  0  0  0  0
    8.6615    7.3758    0.7886 H   0  0  0  0  0  0  0  0  0  0  0  0
    7.0189    5.6072    0.2594 H   0  0  0  0  0  0  0  0  0  0  0  0
    6.0941    2.2915   -0.4683 H   0  0  0  0  0  0  0  0  0  0  0  0
    4.8523    0.2578    0.1365 H   0  0  0  0  0  0  0  0  0  0  0  0
  1  2  2  0  0  0  0
  2  3  1  0  0  0  0
  2  4  1  0  0  0  0
  4  5  1  0  0  0  0
  4 18  2  0  0  0  0
  5  6  2  0  0  0  0
  5 19  1  0  0  0  0
  6  7  1  0  0  0  0
  6 20  1  0  0  0  0
  7  8  1  0  0  0  0
  7 17  2  0  0  0  0
  8  9  1  0  0  0  0
  8 21  1  0  0  0  0
  9 10  1  0  0  0  0
  9 22  1  0  0  0  0
  9 23  1  0  0  0  0
 10 11  1  0  0  0  0
 10 16  2  0  0  0  0
 11 12  2  0  0  0  0
 11 24  1  0  0  0  0
 12 13  1  0  0  0  0
 12 25  1  0  0  0  0
 13 14  1  0  0  0  0
 13 15  2  0  0  0  0
 14 26  1  0  0  0  0
 15 16  1  0  0  0  0
 15 27  1  0  0  0  0
 16 28  1  0  0  0  0
 17 18  1  0  0  0  0
 17 29  1  0  0  0  0
 18 30  1  0  0  0  0
M  CHG  2   2   1   3  -1
M  END
>  <Line_Number>
208


> <IC50>
18180

$$$$
