961574.0
 OpenBabel09092522103D

 31 32  0  0  0  0  0  0  0  0999 V2000
    0.8216    0.0576   -0.1020 C   0  0  0  0  0  0  0  0  0  0  0  0
    2.2395    0.1550   -0.0489 O   0  0  0  0  0  0  0  0  0  0  0  0
    2.8401    0.8936   -1.0297 C   0  0  0  0  0  0  0  0  0  0  0  0
    2.1978    1.4963   -2.1080 C   0  0  0  0  0  0  0  0  0  0  0  0
    2.9265    2.2641   -3.0250 C   0  0  0  0  0  0  0  0  0  0  0  0
    4.3013    2.4611   -2.8684 C   0  0  0  0  0  0  0  0  0  0  0  0
    5.0804    3.2373   -3.7329 N   0  0  0  0  0  0  0  0  0  0  0  0
    4.4255    4.3335   -4.4332 C   0  0  0  0  0  0  0  0  0  0  0  0
    5.4455    5.3766   -4.8227 C   0  0  0  0  0  0  0  0  0  0  0  0
    5.5492    5.8220   -6.1471 C   0  0  0  0  0  0  0  0  0  0  0  0
    6.4519    6.8329   -6.4849 C   0  0  0  0  0  0  0  0  0  0  0  0
    7.2527    7.4073   -5.4994 C   0  0  0  0  0  0  0  0  0  0  0  0
    8.3506    8.6648   -5.9165 Cl  0  0  0  0  0  0  0  0  0  0  0  0
    7.1645    6.9761   -4.1788 C   0  0  0  0  0  0  0  0  0  0  0  0
    6.2604    5.9680   -3.8425 C   0  0  0  0  0  0  0  0  0  0  0  0
    4.9468    1.7920   -1.8245 C   0  0  0  0  0  0  0  0  0  0  0  0
    4.2217    1.0313   -0.9032 C   0  0  0  0  0  0  0  0  0  0  0  0
    0.4916   -0.5154    0.7695 H   0  0  0  0  0  0  0  0  0  0  0  0
    0.5014   -0.4834   -0.9984 H   0  0  0  0  0  0  0  0  0  0  0  0
    0.3513    1.0455   -0.0476 H   0  0  0  0  0  0  0  0  0  0  0  0
    1.1294    1.3955   -2.2689 H   0  0  0  0  0  0  0  0  0  0  0  0
    2.3896    2.7068   -3.8584 H   0  0  0  0  0  0  0  0  0  0  0  0
    5.6098    2.6437   -4.3693 H   0  0  0  0  0  0  0  0  0  0  0  0
    3.6834    4.8332   -3.7944 H   0  0  0  0  0  0  0  0  0  0  0  0
    3.9031    3.9527   -5.3200 H   0  0  0  0  0  0  0  0  0  0  0  0
    4.9224    5.3916   -6.9258 H   0  0  0  0  0  0  0  0  0  0  0  0
    6.5192    7.1745   -7.5145 H   0  0  0  0  0  0  0  0  0  0  0  0
    7.7855    7.4223   -3.4071 H   0  0  0  0  0  0  0  0  0  0  0  0
    6.1879    5.6329   -2.8062 H   0  0  0  0  0  0  0  0  0  0  0  0
    6.0217    1.8996   -1.6971 H   0  0  0  0  0  0  0  0  0  0  0  0
    4.7393    0.5575   -0.0738 H   0  0  0  0  0  0  0  0  0  0  0  0
  1  2  1  0  0  0  0
  1 18  1  0  0  0  0
  1 19  1  0  0  0  0
  1 20  1  0  0  0  0
  2  3  1  0  0  0  0
  3  4  1  0  0  0  0
  3 17  2  0  0  0  0
  4  5  2  0  0  0  0
  4 21  1  0  0  0  0
  5  6  1  0  0  0  0
  5 22  1  0  0  0  0
  6  7  1  0  0  0  0
  6 16  2  0  0  0  0
  7  8  1  0  0  0  0
  7 23  1  0  0  0  0
  8  9  1  0  0  0  0
  8 24  1  0  0  0  0
  8 25  1  0  0  0  0
  9 10  1  0  0  0  0
  9 15  2  0  0  0  0
 10 11  2  0  0  0  0
 10 26  1  0  0  0  0
 11 12  1  0  0  0  0
 11 27  1  0  0  0  0
 12 13  1  0  0  0  0
 12 14  2  0  0  0  0
 14 15  1  0  0  0  0
 14 28  1  0  0  0  0
 15 29  1  0  0  0  0
 16 17  1  0  0  0  0
 16 30  1  0  0  0  0
 17 31  1  0  0  0  0
M  END
>  <Line_Number>
210


> <IC50>
500000

$$$$
