1133060.0
 OpenBabel09092522103D

 29 30  0  0  0  0  0  0  0  0999 V2000
    1.5257   -0.3916    0.3494 O   0  0  0  0  0  0  0  0  0  0  0  0
    2.5718    0.2274    0.1089 N   0  3  0  0  0  0  0  0  0  0  0  0
    3.1254    1.0045    0.9017 O   0  5  0  0  0  0  0  0  0  0  0  0
    3.2046    0.0212   -1.2012 C   0  0  0  0  0  0  0  0  0  0  0  0
    2.6226   -0.8593   -2.1198 C   0  0  0  0  0  0  0  0  0  0  0  0
    3.2493   -1.0833   -3.3520 C   0  0  0  0  0  0  0  0  0  0  0  0
    4.4583   -0.4393   -3.6666 C   0  0  0  0  0  0  0  0  0  0  0  0
    5.1793   -0.7438   -4.9627 C   0  0  0  0  0  0  0  0  0  0  0  0
    4.7429    0.1513   -6.0239 N   0  0  0  0  0  0  0  0  0  0  0  0
    5.2458   -0.0226   -7.3214 C   0  0  0  0  0  0  0  0  0  0  0  0
    6.3308   -0.8535   -7.6346 C   0  0  0  0  0  0  0  0  0  0  0  0
    6.8094   -0.9680   -8.9451 C   0  0  0  0  0  0  0  0  0  0  0  0
    6.2337   -0.2185   -9.9663 C   0  0  0  0  0  0  0  0  0  0  0  0
    5.1957    0.6564   -9.6625 C   0  0  0  0  0  0  0  0  0  0  0  0
    4.4984    1.6123  -10.9137 Cl  0  0  0  0  0  0  0  0  0  0  0  0
    4.7142    0.7645   -8.3546 C   0  0  0  0  0  0  0  0  0  0  0  0
    5.0051    0.4693   -2.7470 C   0  0  0  0  0  0  0  0  0  0  0  0
    4.3892    0.6967   -1.5134 C   0  0  0  0  0  0  0  0  0  0  0  0
    1.6996   -1.3886   -1.8919 H   0  0  0  0  0  0  0  0  0  0  0  0
    2.7986   -1.7801   -4.0578 H   0  0  0  0  0  0  0  0  0  0  0  0
    4.9968   -1.7916   -5.2329 H   0  0  0  0  0  0  0  0  0  0  0  0
    6.2572   -0.6321   -4.7907 H   0  0  0  0  0  0  0  0  0  0  0  0
    3.7376    0.3032   -6.0301 H   0  0  0  0  0  0  0  0  0  0  0  0
    6.8233   -1.4486   -6.8714 H   0  0  0  0  0  0  0  0  0  0  0  0
    7.6333   -1.6428   -9.1645 H   0  0  0  0  0  0  0  0  0  0  0  0
    6.6026   -0.3114  -10.9836 H   0  0  0  0  0  0  0  0  0  0  0  0
    3.9207    1.4752   -8.1387 H   0  0  0  0  0  0  0  0  0  0  0  0
    5.9307    0.9936   -2.9841 H   0  0  0  0  0  0  0  0  0  0  0  0
    4.8498    1.3874   -0.8096 H   0  0  0  0  0  0  0  0  0  0  0  0
  1  2  2  0  0  0  0
  2  3  1  0  0  0  0
  2  4  1  0  0  0  0
  4  5  1  0  0  0  0
  4 18  2  0  0  0  0
  5  6  2  0  0  0  0
  5 19  1  0  0  0  0
  6  7  1  0  0  0  0
  6 20  1  0  0  0  0
  7  8  1  0  0  0  0
  7 17  2  0  0  0  0
  8  9  1  0  0  0  0
  8 21  1  0  0  0  0
  8 22  1  0  0  0  0
  9 10  1  0  0  0  0
  9 23  1  0  0  0  0
 10 11  1  0  0  0  0
 10 16  2  0  0  0  0
 11 12  2  0  0  0  0
 11 24  1  0  0  0  0
 12 13  1  0  0  0  0
 12 25  1  0  0  0  0
 13 14  2  0  0  0  0
 13 26  1  0  0  0  0
 14 15  1  0  0  0  0
 14 16  1  0  0  0  0
 16 27  1  0  0  0  0
 17 18  1  0  0  0  0
 17 28  1  0  0  0  0
 18 29  1  0  0  0  0
M  CHG  2   2   1   3  -1
M  END
>  <Line_Number>
212


> <IC50>
236500

$$$$
