22353735.0
 OpenBabel09092522103D

 29 30  0  0  0  0  0  0  0  0999 V2000
    0.9702    0.0929    0.0554 O   0  0  0  0  0  0  0  0  0  0  0  0
    2.2068    0.1081    0.1418 N   0  3  0  0  0  0  0  0  0  0  0  0
    2.8808   -0.7524    0.7258 O   0  5  0  0  0  0  0  0  0  0  0  0
    2.9210    1.2253   -0.4875 C   0  0  0  0  0  0  0  0  0  0  0  0
    2.2029    2.2229   -1.1558 C   0  0  0  0  0  0  0  0  0  0  0  0
    2.8858    3.3073   -1.7192 C   0  0  0  0  0  0  0  0  0  0  0  0
    4.2765    3.4186   -1.6032 C   0  0  0  0  0  0  0  0  0  0  0  0
    5.0195    4.4766   -2.1382 N   0  0  0  0  0  0  0  0  0  0  0  0
    4.3734    5.7830   -2.2312 C   0  0  0  0  0  0  0  0  0  0  0  0
    5.3926    6.9037   -2.2322 C   0  0  0  0  0  0  0  0  0  0  0  0
    5.0668    8.1270   -2.8400 C   0  0  0  0  0  0  0  0  0  0  0  0
    5.9488    9.2098   -2.7841 C   0  0  0  0  0  0  0  0  0  0  0  0
    7.1628    9.0805   -2.1140 C   0  0  0  0  0  0  0  0  0  0  0  0
    8.2437   10.4167   -2.0388 Cl  0  0  0  0  0  0  0  0  0  0  0  0
    7.4998    7.8803   -1.4942 C   0  0  0  0  0  0  0  0  0  0  0  0
    6.6139    6.8004   -1.5458 C   0  0  0  0  0  0  0  0  0  0  0  0
    4.9818    2.3744   -0.9891 C   0  0  0  0  0  0  0  0  0  0  0  0
    4.3148    1.2888   -0.4133 C   0  0  0  0  0  0  0  0  0  0  0  0
    1.1192    2.1776   -1.2417 H   0  0  0  0  0  0  0  0  0  0  0  0
    2.3054    4.0611   -2.2433 H   0  0  0  0  0  0  0  0  0  0  0  0
    5.4354    4.2076   -3.0290 H   0  0  0  0  0  0  0  0  0  0  0  0
    3.7113    5.9592   -1.3742 H   0  0  0  0  0  0  0  0  0  0  0  0
    3.7773    5.8245   -3.1509 H   0  0  0  0  0  0  0  0  0  0  0  0
    4.1139    8.2513   -3.3504 H   0  0  0  0  0  0  0  0  0  0  0  0
    5.6780   10.1513   -3.2544 H   0  0  0  0  0  0  0  0  0  0  0  0
    8.4410    7.7792   -0.9609 H   0  0  0  0  0  0  0  0  0  0  0  0
    6.8783    5.8756   -1.0348 H   0  0  0  0  0  0  0  0  0  0  0  0
    6.0659    2.4307   -0.9164 H   0  0  0  0  0  0  0  0  0  0  0  0
    4.8942    0.5208    0.0932 H   0  0  0  0  0  0  0  0  0  0  0  0
  1  2  2  0  0  0  0
  2  3  1  0  0  0  0
  2  4  1  0  0  0  0
  4  5  1  0  0  0  0
  4 18  2  0  0  0  0
  5  6  2  0  0  0  0
  5 19  1  0  0  0  0
  6  7  1  0  0  0  0
  6 20  1  0  0  0  0
  7  8  1  0  0  0  0
  7 17  2  0  0  0  0
  8  9  1  0  0  0  0
  8 21  1  0  0  0  0
  9 10  1  0  0  0  0
  9 22  1  0  0  0  0
  9 23  1  0  0  0  0
 10 11  1  0  0  0  0
 10 16  2  0  0  0  0
 11 12  2  0  0  0  0
 11 24  1  0  0  0  0
 12 13  1  0  0  0  0
 12 25  1  0  0  0  0
 13 14  1  0  0  0  0
 13 15  2  0  0  0  0
 15 16  1  0  0  0  0
 15 26  1  0  0  0  0
 16 27  1  0  0  0  0
 17 18  1  0  0  0  0
 17 28  1  0  0  0  0
 18 29  1  0  0  0  0
M  CHG  2   2   1   3  -1
M  END
>  <Line_Number>
213


> <IC50>
51650

$$$$
