13462606.0
 OpenBabel09092522103D

 29 30  0  0  0  0  0  0  0  0999 V2000
    1.1880   -0.5823    0.3014 O   0  0  0  0  0  0  0  0  0  0  0  0
    2.2713   -0.1123   -0.0724 N   0  3  0  0  0  0  0  0  0  0  0  0
    2.8222   -0.3900   -1.1485 O   0  5  0  0  0  0  0  0  0  0  0  0
    2.9549    0.8284    0.8229 C   0  0  0  0  0  0  0  0  0  0  0  0
    2.3626    1.1624    2.0460 C   0  0  0  0  0  0  0  0  0  0  0  0
    3.0192    2.0503    2.8891 C   0  0  0  0  0  0  0  0  0  0  0  0
    4.2602    2.5807    2.5192 C   0  0  0  0  0  0  0  0  0  0  0  0
    4.8906    2.2227    1.3166 C   0  0  0  0  0  0  0  0  0  0  0  0
    6.1099    2.7814    0.9022 N   0  0  0  0  0  0  0  0  0  0  0  0
    7.0543    3.1750    1.9449 C   0  0  0  0  0  0  0  0  0  0  0  0
    8.3255    3.7321    1.3478 C   0  0  0  0  0  0  0  0  0  0  0  0
    8.2888    4.8707    0.5274 C   0  0  0  0  0  0  0  0  0  0  0  0
    9.4720    5.4423    0.0536 C   0  0  0  0  0  0  0  0  0  0  0  0
   10.6986    4.8785    0.3973 C   0  0  0  0  0  0  0  0  0  0  0  0
   12.1581    5.5950   -0.1652 Cl  0  0  0  0  0  0  0  0  0  0  0  0
   10.7521    3.7424    1.2017 C   0  0  0  0  0  0  0  0  0  0  0  0
    9.5692    3.1705    1.6758 C   0  0  0  0  0  0  0  0  0  0  0  0
    4.1954    1.3719    0.4461 C   0  0  0  0  0  0  0  0  0  0  0  0
    1.4028    0.7503    2.3482 H   0  0  0  0  0  0  0  0  0  0  0  0
    2.5693    2.3423    3.8347 H   0  0  0  0  0  0  0  0  0  0  0  0
    4.7160    3.2926    3.2005 H   0  0  0  0  0  0  0  0  0  0  0  0
    6.5633    2.2302    0.1750 H   0  0  0  0  0  0  0  0  0  0  0  0
    7.2871    2.3090    2.5766 H   0  0  0  0  0  0  0  0  0  0  0  0
    6.6380    3.9604    2.5864 H   0  0  0  0  0  0  0  0  0  0  0  0
    7.3328    5.3235    0.2680 H   0  0  0  0  0  0  0  0  0  0  0  0
    9.4294    6.3303   -0.5712 H   0  0  0  0  0  0  0  0  0  0  0  0
   11.7090    3.3049    1.4733 H   0  0  0  0  0  0  0  0  0  0  0  0
    9.6277    2.2937    2.3171 H   0  0  0  0  0  0  0  0  0  0  0  0
    4.6295    1.1265   -0.5206 H   0  0  0  0  0  0  0  0  0  0  0  0
  1  2  2  0  0  0  0
  2  3  1  0  0  0  0
  2  4  1  0  0  0  0
  4  5  1  0  0  0  0
  4 18  2  0  0  0  0
  5  6  2  0  0  0  0
  5 19  1  0  0  0  0
  6  7  1  0  0  0  0
  6 20  1  0  0  0  0
  7  8  2  0  0  0  0
  7 21  1  0  0  0  0
  8  9  1  0  0  0  0
  8 18  1  0  0  0  0
  9 10  1  0  0  0  0
  9 22  1  0  0  0  0
 10 11  1  0  0  0  0
 10 23  1  0  0  0  0
 10 24  1  0  0  0  0
 11 12  1  0  0  0  0
 11 17  2  0  0  0  0
 12 13  2  0  0  0  0
 12 25  1  0  0  0  0
 13 14  1  0  0  0  0
 13 26  1  0  0  0  0
 14 15  1  0  0  0  0
 14 16  2  0  0  0  0
 16 17  1  0  0  0  0
 16 27  1  0  0  0  0
 17 28  1  0  0  0  0
 18 29  1  0  0  0  0
M  CHG  2   2   1   3  -1
M  END
>  <Line_Number>
214


> <IC50>
57500

$$$$
