43718150.0
 OpenBabel09092522103D

 31 32  0  0  0  0  0  0  0  0999 V2000
    5.8155   -2.3303    3.4190 O   0  0  0  0  0  0  0  0  0  0  0  0
    5.4563   -1.2918    2.8440 N   0  3  0  0  0  0  0  0  0  0  0  0
    5.7679   -0.1507    3.2246 O   0  5  0  0  0  0  0  0  0  0  0  0
    4.5809   -1.4248    1.6673 C   0  0  0  0  0  0  0  0  0  0  0  0
    4.1907   -2.7371    1.3100 C   0  0  0  0  0  0  0  0  0  0  0  0
    3.3155   -2.9515    0.2504 C   0  0  0  0  0  0  0  0  0  0  0  0
    2.8333   -1.8657   -0.4631 C   0  0  0  0  0  0  0  0  0  0  0  0
    3.2354   -0.5679   -0.1284 C   0  0  0  0  0  0  0  0  0  0  0  0
    4.0975   -0.2938    0.9540 C   0  0  0  0  0  0  0  0  0  0  0  0
    4.5450    1.0296    1.1751 N   0  0  0  0  0  0  0  0  0  0  0  0
    3.5935    2.1168    0.9328 C   0  0  0  0  0  0  0  0  0  0  0  0
    4.2024    3.4771    1.1844 C   0  0  0  0  0  0  0  0  0  0  0  0
    5.3339    3.9040    0.4636 C   0  0  0  0  0  0  0  0  0  0  0  0
    5.8252    5.2079    0.6006 C   0  0  0  0  0  0  0  0  0  0  0  0
    5.1792    6.0885    1.4588 C   0  0  0  0  0  0  0  0  0  0  0  0
    5.6039    7.3771    1.6300 O   0  0  0  0  0  0  0  0  0  0  0  0
    4.0563    5.6775    2.1704 C   0  0  0  0  0  0  0  0  0  0  0  0
    3.4064    6.5593    2.9868 O   0  0  0  0  0  0  0  0  0  0  0  0
    3.5665    4.3840    2.0468 C   0  0  0  0  0  0  0  0  0  0  0  0
    4.5632   -3.6045    1.8539 H   0  0  0  0  0  0  0  0  0  0  0  0
    3.0177   -3.9610   -0.0216 H   0  0  0  0  0  0  0  0  0  0  0  0
    2.1557   -2.0187   -1.3000 H   0  0  0  0  0  0  0  0  0  0  0  0
    2.8629    0.2297   -0.7628 H   0  0  0  0  0  0  0  0  0  0  0  0
    5.0048    1.1322    2.0879 H   0  0  0  0  0  0  0  0  0  0  0  0
    2.7107    1.9750    1.5684 H   0  0  0  0  0  0  0  0  0  0  0  0
    3.2592    2.1337   -0.1100 H   0  0  0  0  0  0  0  0  0  0  0  0
    5.8216    3.2190   -0.2283 H   0  0  0  0  0  0  0  0  0  0  0  0
    6.6897    5.5145    0.0208 H   0  0  0  0  0  0  0  0  0  0  0  0
    6.4371    7.4860    1.1401 H   0  0  0  0  0  0  0  0  0  0  0  0
    3.9082    7.3935    2.8917 H   0  0  0  0  0  0  0  0  0  0  0  0
    2.6771    4.1010    2.6033 H   0  0  0  0  0  0  0  0  0  0  0  0
  1  2  2  0  0  0  0
  2  3  1  0  0  0  0
  2  4  1  0  0  0  0
  4  5  1  0  0  0  0
  4  9  2  0  0  0  0
  5  6  2  0  0  0  0
  5 20  1  0  0  0  0
  6  7  1  0  0  0  0
  6 21  1  0  0  0  0
  7  8  2  0  0  0  0
  7 22  1  0  0  0  0
  8  9  1  0  0  0  0
  8 23  1  0  0  0  0
  9 10  1  0  0  0  0
 10 11  1  0  0  0  0
 10 24  1  0  0  0  0
 11 12  1  0  0  0  0
 11 25  1  0  0  0  0
 11 26  1  0  0  0  0
 12 13  1  0  0  0  0
 12 19  2  0  0  0  0
 13 14  2  0  0  0  0
 13 27  1  0  0  0  0
 14 15  1  0  0  0  0
 14 28  1  0  0  0  0
 15 16  1  0  0  0  0
 15 17  2  0  0  0  0
 16 29  1  0  0  0  0
 17 18  1  0  0  0  0
 17 19  1  0  0  0  0
 18 30  1  0  0  0  0
 19 31  1  0  0  0  0
M  CHG  2   2   1   3  -1
M  END
>  <Line_Number>
215


> <IC50>
45100

$$$$
