43719772.0
 OpenBabel09092522103D

 31 32  0  0  0  0  0  0  0  0999 V2000
    3.5932    1.1439   -3.1476 O   0  0  0  0  0  0  0  0  0  0  0  0
    4.6181    0.8108   -2.5348 N   0  3  0  0  0  0  0  0  0  0  0  0
    5.5235    1.5897   -2.2057 O   0  5  0  0  0  0  0  0  0  0  0  0
    4.7723   -0.6053   -2.1818 C   0  0  0  0  0  0  0  0  0  0  0  0
    3.7863   -1.5282   -2.5513 C   0  0  0  0  0  0  0  0  0  0  0  0
    3.9664   -2.8851   -2.2604 C   0  0  0  0  0  0  0  0  0  0  0  0
    5.1268   -3.3328   -1.6191 C   0  0  0  0  0  0  0  0  0  0  0  0
    5.3861   -4.6672   -1.3211 N   0  0  0  0  0  0  0  0  0  0  0  0
    4.8342   -5.7139   -2.1752 C   0  0  0  0  0  0  0  0  0  0  0  0
    5.7382   -6.9222   -2.0970 C   0  0  0  0  0  0  0  0  0  0  0  0
    7.0990   -6.8080   -2.4519 C   0  0  0  0  0  0  0  0  0  0  0  0
    7.9557   -7.9103   -2.3936 C   0  0  0  0  0  0  0  0  0  0  0  0
    7.4460   -9.1337   -1.9822 C   0  0  0  0  0  0  0  0  0  0  0  0
    8.2307  -10.2520   -1.9016 O   0  0  0  0  0  0  0  0  0  0  0  0
    6.1027   -9.2577   -1.6346 C   0  0  0  0  0  0  0  0  0  0  0  0
    5.6156  -10.4659   -1.2245 O   0  0  0  0  0  0  0  0  0  0  0  0
    5.2434   -8.1682   -1.6926 C   0  0  0  0  0  0  0  0  0  0  0  0
    6.0673   -2.3827   -1.1968 C   0  0  0  0  0  0  0  0  0  0  0  0
    5.9099   -1.0263   -1.4887 C   0  0  0  0  0  0  0  0  0  0  0  0
    2.8830   -1.2138   -3.0697 H   0  0  0  0  0  0  0  0  0  0  0  0
    3.1850   -3.5837   -2.5486 H   0  0  0  0  0  0  0  0  0  0  0  0
    5.2432   -4.8703   -0.3345 H   0  0  0  0  0  0  0  0  0  0  0  0
    4.7923   -5.4010   -3.2268 H   0  0  0  0  0  0  0  0  0  0  0  0
    3.8163   -5.9611   -1.8551 H   0  0  0  0  0  0  0  0  0  0  0  0
    7.4919   -5.8415   -2.7639 H   0  0  0  0  0  0  0  0  0  0  0  0
    8.9987   -7.7888   -2.6647 H   0  0  0  0  0  0  0  0  0  0  0  0
    9.1263  -10.0109   -2.1951 H   0  0  0  0  0  0  0  0  0  0  0  0
    6.3929  -11.0600   -1.2443 H   0  0  0  0  0  0  0  0  0  0  0  0
    4.2006   -8.2980   -1.4182 H   0  0  0  0  0  0  0  0  0  0  0  0
    6.9626   -2.7142   -0.6732 H   0  0  0  0  0  0  0  0  0  0  0  0
    6.6847   -0.3265   -1.1847 H   0  0  0  0  0  0  0  0  0  0  0  0
  1  2  2  0  0  0  0
  2  3  1  0  0  0  0
  2  4  1  0  0  0  0
  4  5  1  0  0  0  0
  4 19  2  0  0  0  0
  5  6  2  0  0  0  0
  5 20  1  0  0  0  0
  6  7  1  0  0  0  0
  6 21  1  0  0  0  0
  7  8  1  0  0  0  0
  7 18  2  0  0  0  0
  8  9  1  0  0  0  0
  8 22  1  0  0  0  0
  9 10  1  0  0  0  0
  9 23  1  0  0  0  0
  9 24  1  0  0  0  0
 10 11  1  0  0  0  0
 10 17  2  0  0  0  0
 11 12  2  0  0  0  0
 11 25  1  0  0  0  0
 12 13  1  0  0  0  0
 12 26  1  0  0  0  0
 13 14  1  0  0  0  0
 13 15  2  0  0  0  0
 14 27  1  0  0  0  0
 15 16  1  0  0  0  0
 15 17  1  0  0  0  0
 16 28  1  0  0  0  0
 17 29  1  0  0  0  0
 18 19  1  0  0  0  0
 18 30  1  0  0  0  0
 19 31  1  0  0  0  0
M  CHG  2   2   1   3  -1
M  END
>  <Line_Number>
216


> <IC50>
1270

$$$$
