855075.0
 OpenBabel09092522103D

 39 40  0  0  0  0  0  0  0  0999 V2000
    1.5726    1.2523    1.1397 C   0  0  0  0  0  0  0  0  0  0  0  0
    2.8002    0.7122    0.6597 O   0  0  0  0  0  0  0  0  0  0  0  0
    3.2731    1.2425   -0.5095 C   0  0  0  0  0  0  0  0  0  0  0  0
    2.6384    2.2242   -1.2640 C   0  0  0  0  0  0  0  0  0  0  0  0
    3.2323    2.7129   -2.4316 C   0  0  0  0  0  0  0  0  0  0  0  0
    4.4513    2.2100   -2.9017 C   0  0  0  0  0  0  0  0  0  0  0  0
    5.1141    2.7302   -4.0181 N   0  0  0  0  0  0  0  0  0  0  0  0
    4.4896    3.7916   -4.7902 C   0  0  0  0  0  0  0  0  0  0  0  0
    5.3319    4.1737   -5.9802 C   0  0  0  0  0  0  0  0  0  0  0  0
    5.1099    3.5864   -7.2264 C   0  0  0  0  0  0  0  0  0  0  0  0
    5.8628    3.9759   -8.3434 C   0  0  0  0  0  0  0  0  0  0  0  0
    6.8630    4.9614   -8.2775 C   0  0  0  0  0  0  0  0  0  0  0  0
    7.6196    5.2973   -9.3938 N   0  0  0  0  0  0  0  0  0  0  0  0
    7.0266    5.2971  -10.7310 C   0  0  0  0  0  0  0  0  0  0  0  0
    8.8580    6.0637   -9.2893 C   0  0  0  0  0  0  0  0  0  0  0  0
    7.0779    5.5231   -7.0087 C   0  0  0  0  0  0  0  0  0  0  0  0
    6.3372    5.1356   -5.8785 C   0  0  0  0  0  0  0  0  0  0  0  0
    5.0828    1.2269   -2.1324 C   0  0  0  0  0  0  0  0  0  0  0  0
    4.5013    0.7441   -0.9474 C   0  0  0  0  0  0  0  0  0  0  0  0
    1.3348    0.7659    2.0905 H   0  0  0  0  0  0  0  0  0  0  0  0
    0.7534    1.0419    0.4438 H   0  0  0  0  0  0  0  0  0  0  0  0
    1.6599    2.3279    1.3318 H   0  0  0  0  0  0  0  0  0  0  0  0
    1.6839    2.6461   -0.9729 H   0  0  0  0  0  0  0  0  0  0  0  0
    2.6950    3.4883   -2.9705 H   0  0  0  0  0  0  0  0  0  0  0  0
    5.5520    2.0069   -4.5860 H   0  0  0  0  0  0  0  0  0  0  0  0
    4.3495    4.6836   -4.1637 H   0  0  0  0  0  0  0  0  0  0  0  0
    3.4984    3.4858   -5.1466 H   0  0  0  0  0  0  0  0  0  0  0  0
    4.3478    2.8197   -7.3448 H   0  0  0  0  0  0  0  0  0  0  0  0
    5.6651    3.4508   -9.2729 H   0  0  0  0  0  0  0  0  0  0  0  0
    6.0816    4.7564  -10.8184 H   0  0  0  0  0  0  0  0  0  0  0  0
    7.7269    4.8422  -11.4403 H   0  0  0  0  0  0  0  0  0  0  0  0
    6.8371    6.3260  -11.0580 H   0  0  0  0  0  0  0  0  0  0  0  0
    9.3274    6.0218   -8.3026 H   0  0  0  0  0  0  0  0  0  0  0  0
    8.6882    7.1124   -9.5566 H   0  0  0  0  0  0  0  0  0  0  0  0
    9.5944    5.6521   -9.9895 H   0  0  0  0  0  0  0  0  0  0  0  0
    7.8223    6.2995   -6.8613 H   0  0  0  0  0  0  0  0  0  0  0  0
    6.5518    5.6015   -4.9180 H   0  0  0  0  0  0  0  0  0  0  0  0
    6.0530    0.8410   -2.4333 H   0  0  0  0  0  0  0  0  0  0  0  0
    5.0175   -0.0104   -0.3647 H   0  0  0  0  0  0  0  0  0  0  0  0
  1  2  1  0  0  0  0
  1 20  1  0  0  0  0
  1 21  1  0  0  0  0
  1 22  1  0  0  0  0
  2  3  1  0  0  0  0
  3  4  1  0  0  0  0
  3 19  2  0  0  0  0
  4  5  2  0  0  0  0
  4 23  1  0  0  0  0
  5  6  1  0  0  0  0
  5 24  1  0  0  0  0
  6  7  1  0  0  0  0
  6 18  2  0  0  0  0
  7  8  1  0  0  0  0
  7 25  1  0  0  0  0
  8  9  1  0  0  0  0
  8 26  1  0  0  0  0
  8 27  1  0  0  0  0
  9 10  1  0  0  0  0
  9 17  2  0  0  0  0
 10 11  2  0  0  0  0
 10 28  1  0  0  0  0
 11 12  1  0  0  0  0
 11 29  1  0  0  0  0
 12 13  1  0  0  0  0
 12 16  2  0  0  0  0
 13 14  1  0  0  0  0
 13 15  1  0  0  0  0
 14 30  1  0  0  0  0
 14 31  1  0  0  0  0
 14 32  1  0  0  0  0
 15 33  1  0  0  0  0
 15 34  1  0  0  0  0
 15 35  1  0  0  0  0
 16 17  1  0  0  0  0
 16 36  1  0  0  0  0
 17 37  1  0  0  0  0
 18 19  1  0  0  0  0
 18 38  1  0  0  0  0
 19 39  1  0  0  0  0
M  END
>  <Line_Number>
218


> <IC50>
500000

$$$$
