292417.0
 OpenBabel09092522103D

 37 38  0  0  0  0  0  0  0  0999 V2000
    1.1295   -0.4320    0.1084 C   0  0  0  0  0  0  0  0  0  0  0  0
    2.4414    0.1859   -0.0474 N   0  0  0  0  0  0  0  0  0  0  0  0
    3.1843   -0.1528   -1.2592 C   0  0  0  0  0  0  0  0  0  0  0  0
    3.1682    0.5956    1.0747 C   0  0  0  0  0  0  0  0  0  0  0  0
    2.7057    0.4099    2.3881 C   0  0  0  0  0  0  0  0  0  0  0  0
    3.4365    0.8428    3.5076 C   0  0  0  0  0  0  0  0  0  0  0  0
    4.6563    1.5057    3.3519 C   0  0  0  0  0  0  0  0  0  0  0  0
    5.4150    2.0414    4.5409 C   0  0  0  0  0  0  0  0  0  0  0  0
    6.3663    1.0558    5.0382 N   0  0  0  0  0  0  0  0  0  0  0  0
    7.1087    1.3229    6.1939 C   0  0  0  0  0  0  0  0  0  0  0  0
    7.2109    2.5954    6.7749 C   0  0  0  0  0  0  0  0  0  0  0  0
    8.0032    2.8271    7.9059 C   0  0  0  0  0  0  0  0  0  0  0  0
    8.7433    1.7905    8.4640 C   0  0  0  0  0  0  0  0  0  0  0  0
    8.6960    0.5271    7.8650 C   0  0  0  0  0  0  0  0  0  0  0  0
    9.4894   -0.5710    8.4326 N   0  3  0  0  0  0  0  0  0  0  0  0
   10.1371   -0.3400    9.4631 O   0  0  0  0  0  0  0  0  0  0  0  0
    9.4578   -1.6655    7.8506 O   0  5  0  0  0  0  0  0  0  0  0  0
    7.8979    0.2975    6.7317 C   0  0  0  0  0  0  0  0  0  0  0  0
    5.1409    1.6920    2.0570 C   0  0  0  0  0  0  0  0  0  0  0  0
    4.4037    1.2528    0.9464 C   0  0  0  0  0  0  0  0  0  0  0  0
    0.6826   -0.6666   -0.8647 H   0  0  0  0  0  0  0  0  0  0  0  0
    0.4345    0.2523    0.6073 H   0  0  0  0  0  0  0  0  0  0  0  0
    1.1930   -1.3679    0.6736 H   0  0  0  0  0  0  0  0  0  0  0  0
    2.5425   -0.6397   -2.0028 H   0  0  0  0  0  0  0  0  0  0  0  0
    4.0068   -0.8426   -1.0400 H   0  0  0  0  0  0  0  0  0  0  0  0
    3.5814    0.7476   -1.7378 H   0  0  0  0  0  0  0  0  0  0  0  0
    1.7574   -0.0859    2.5793 H   0  0  0  0  0  0  0  0  0  0  0  0
    3.0304    0.6669    4.5013 H   0  0  0  0  0  0  0  0  0  0  0  0
    4.7005    2.3228    5.3242 H   0  0  0  0  0  0  0  0  0  0  0  0
    5.9423    2.9545    4.2350 H   0  0  0  0  0  0  0  0  0  0  0  0
    6.0012    0.1067    5.0130 H   0  0  0  0  0  0  0  0  0  0  0  0
    6.6652    3.4425    6.3679 H   0  0  0  0  0  0  0  0  0  0  0  0
    8.0411    3.8213    8.3447 H   0  0  0  0  0  0  0  0  0  0  0  0
    9.3525    1.9825    9.3441 H   0  0  0  0  0  0  0  0  0  0  0  0
    7.8925   -0.6814    6.2569 H   0  0  0  0  0  0  0  0  0  0  0  0
    6.0892    2.1992    1.8928 H   0  0  0  0  0  0  0  0  0  0  0  0
    4.8143    1.4688   -0.0342 H   0  0  0  0  0  0  0  0  0  0  0  0
  1  2  1  0  0  0  0
  1 21  1  0  0  0  0
  1 22  1  0  0  0  0
  1 23  1  0  0  0  0
  2  3  1  0  0  0  0
  2  4  1  0  0  0  0
  3 24  1  0  0  0  0
  3 25  1  0  0  0  0
  3 26  1  0  0  0  0
  4  5  1  0  0  0  0
  4 20  2  0  0  0  0
  5  6  2  0  0  0  0
  5 27  1  0  0  0  0
  6  7  1  0  0  0  0
  6 28  1  0  0  0  0
  7  8  1  0  0  0  0
  7 19  2  0  0  0  0
  8  9  1  0  0  0  0
  8 29  1  0  0  0  0
  8 30  1  0  0  0  0
  9 10  1  0  0  0  0
  9 31  1  0  0  0  0
 10 11  1  0  0  0  0
 10 18  2  0  0  0  0
 11 12  2  0  0  0  0
 11 32  1  0  0  0  0
 12 13  1  0  0  0  0
 12 33  1  0  0  0  0
 13 14  2  0  0  0  0
 13 34  1  0  0  0  0
 14 15  1  0  0  0  0
 14 18  1  0  0  0  0
 15 16  2  0  0  0  0
 15 17  1  0  0  0  0
 18 35  1  0  0  0  0
 19 20  1  0  0  0  0
 19 36  1  0  0  0  0
 20 37  1  0  0  0  0
M  CHG  2  15   1  17  -1
M  END
>  <Line_Number>
222


> <IC50>
44600

$$$$
