145982554.0
 OpenBabel09092522103D

 24 24  0  0  0  0  0  0  0  0999 V2000
    1.0874   -0.1966    0.1093 O   0  0  0  0  0  0  0  0  0  0  0  0
    2.3121   -0.0815    0.0947 C   0  0  0  0  0  0  0  0  0  0  0  0
    3.0530    1.2210    0.2907 C   0  0  0  0  0  0  0  0  0  0  0  0
    2.0805    2.3703    0.5118 C   0  0  0  0  0  0  0  0  0  0  0  0
    2.8165    3.5869    0.6931 O   0  0  0  0  0  0  0  0  0  0  0  0
    2.0680    4.7066    0.9529 C   0  0  0  0  0  0  0  0  0  0  0  0
    0.6720    4.7561    0.9909 C   0  0  0  0  0  0  0  0  0  0  0  0
    0.0119    5.9543    1.2810 C   0  0  0  0  0  0  0  0  0  0  0  0
    0.7478    7.1090    1.5320 C   0  0  0  0  0  0  0  0  0  0  0  0
   -0.1506    8.7206    1.9391 Br  0  0  0  0  0  0  0  0  0  0  0  0
    2.1397    7.0770    1.4876 C   0  0  0  0  0  0  0  0  0  0  0  0
    2.7970    5.8759    1.1961 C   0  0  0  0  0  0  0  0  0  0  0  0
    3.1440   -1.1574   -0.1037 N   0  0  0  0  0  0  0  0  0  0  0  0
    2.5347   -2.4140   -0.2987 O   0  0  0  0  0  0  0  0  0  0  0  0
    3.6746    1.4193   -0.5907 H   0  0  0  0  0  0  0  0  0  0  0  0
    3.7263    1.1280    1.1505 H   0  0  0  0  0  0  0  0  0  0  0  0
    1.4791    2.1643    1.4061 H   0  0  0  0  0  0  0  0  0  0  0  0
    1.4262    2.4638   -0.3638 H   0  0  0  0  0  0  0  0  0  0  0  0
    0.0600    3.8812    0.8020 H   0  0  0  0  0  0  0  0  0  0  0  0
   -1.0754    5.9700    1.3104 H   0  0  0  0  0  0  0  0  0  0  0  0
    2.7198    7.9752    1.6799 H   0  0  0  0  0  0  0  0  0  0  0  0
    3.8823    5.8556    1.1650 H   0  0  0  0  0  0  0  0  0  0  0  0
    4.1558   -1.1187   -0.1395 H   0  0  0  0  0  0  0  0  0  0  0  0
    1.5782   -2.2015   -0.2334 H   0  0  0  0  0  0  0  0  0  0  0  0
  1  2  2  0  0  0  0
  2  3  1  0  0  0  0
  2 13  1  0  0  0  0
  3  4  1  0  0  0  0
  3 15  1  0  0  0  0
  3 16  1  0  0  0  0
  4  5  1  0  0  0  0
  4 17  1  0  0  0  0
  4 18  1  0  0  0  0
  5  6  1  0  0  0  0
  6  7  1  0  0  0  0
  6 12  2  0  0  0  0
  7  8  2  0  0  0  0
  7 19  1  0  0  0  0
  8  9  1  0  0  0  0
  8 20  1  0  0  0  0
  9 10  1  0  0  0  0
  9 11  2  0  0  0  0
 11 12  1  0  0  0  0
 11 21  1  0  0  0  0
 12 22  1  0  0  0  0
 13 14  1  0  0  0  0
 13 23  1  0  0  0  0
 14 24  1  0  0  0  0
M  END
>  <Line_Number>
226


> <IC50>
860

$$$$
