145983251.0
 OpenBabel09092522103D

 27 27  0  0  0  0  0  0  0  0999 V2000
    2.4637   -0.0283   -0.0108 C   0  0  0  0  0  0  0  0  0  0  0  0
    0.9638    0.0088   -0.0037 C   0  0  0  0  0  0  0  0  0  0  0  0
    0.2793    1.2275   -0.0033 C   0  0  0  0  0  0  0  0  0  0  0  0
   -1.1202    1.2612   -0.0119 C   0  0  0  0  0  0  0  0  0  0  0  0
   -1.8560    0.0751   -0.0268 C   0  0  0  0  0  0  0  0  0  0  0  0
   -3.2267   -0.0051   -0.0225 O   0  0  0  0  0  0  0  0  0  0  0  0
   -3.8989    1.0814   -0.6693 C   0  0  0  0  0  0  0  0  0  0  0  0
   -5.4053    0.8530   -0.6140 C   0  0  0  0  0  0  0  0  0  0  0  0
   -6.1302    1.9895   -1.2947 C   0  0  0  0  0  0  0  0  0  0  0  0
   -5.5719    2.9515   -1.8181 O   0  0  0  0  0  0  0  0  0  0  0  0
   -7.4955    1.8700   -1.2881 N   0  0  0  0  0  0  0  0  0  0  0  0
   -8.2238    2.9082   -1.9118 O   0  0  0  0  0  0  0  0  0  0  0  0
   -1.1756   -1.1436   -0.0037 C   0  0  0  0  0  0  0  0  0  0  0  0
    0.2238   -1.1790   -0.0018 C   0  0  0  0  0  0  0  0  0  0  0  0
    2.8894    0.9811    0.0052 H   0  0  0  0  0  0  0  0  0  0  0  0
    2.8253   -0.5276   -0.9155 H   0  0  0  0  0  0  0  0  0  0  0  0
    2.8364   -0.5606    0.8700 H   0  0  0  0  0  0  0  0  0  0  0  0
    0.8292    2.1663    0.0070 H   0  0  0  0  0  0  0  0  0  0  0  0
   -1.5989    2.2340    0.0086 H   0  0  0  0  0  0  0  0  0  0  0  0
   -3.5724    1.1385   -1.7153 H   0  0  0  0  0  0  0  0  0  0  0  0
   -3.6788    2.0269   -0.1634 H   0  0  0  0  0  0  0  0  0  0  0  0
   -5.7370    0.7849    0.4296 H   0  0  0  0  0  0  0  0  0  0  0  0
   -5.6682   -0.0937   -1.1019 H   0  0  0  0  0  0  0  0  0  0  0  0
   -8.0265    1.1137   -0.8702 H   0  0  0  0  0  0  0  0  0  0  0  0
   -7.5060    3.5055   -2.2264 H   0  0  0  0  0  0  0  0  0  0  0  0
   -1.7356   -2.0750   -0.0033 H   0  0  0  0  0  0  0  0  0  0  0  0
    0.7321   -2.1408   -0.0016 H   0  0  0  0  0  0  0  0  0  0  0  0
  1  2  1  0  0  0  0
  1 15  1  0  0  0  0
  1 16  1  0  0  0  0
  1 17  1  0  0  0  0
  2  3  1  0  0  0  0
  2 14  2  0  0  0  0
  3  4  2  0  0  0  0
  3 18  1  0  0  0  0
  4  5  1  0  0  0  0
  4 19  1  0  0  0  0
  5  6  1  0  0  0  0
  5 13  2  0  0  0  0
  6  7  1  0  0  0  0
  7  8  1  0  0  0  0
  7 20  1  0  0  0  0
  7 21  1  0  0  0  0
  8  9  1  0  0  0  0
  8 22  1  0  0  0  0
  8 23  1  0  0  0  0
  9 10  2  0  0  0  0
  9 11  1  0  0  0  0
 11 12  1  0  0  0  0
 11 24  1  0  0  0  0
 12 25  1  0  0  0  0
 13 14  1  0  0  0  0
 13 26  1  0  0  0  0
 14 27  1  0  0  0  0
M  END
>  <Line_Number>
229


> <IC50>
1380

$$$$
