145983865.0
 OpenBabel09092522103D

 23 23  0  0  0  0  0  0  0  0999 V2000
    2.4513   -1.0369    1.1113 O   0  0  0  0  0  0  0  0  0  0  0  0
    2.1487   -0.3646    0.1255 C   0  0  0  0  0  0  0  0  0  0  0  0
    2.8451   -0.5190   -1.2229 C   0  0  0  0  0  0  0  0  0  0  0  0
    2.0063   -0.0709   -2.2825 O   0  0  0  0  0  0  0  0  0  0  0  0
    2.5019   -0.1066   -3.5581 C   0  0  0  0  0  0  0  0  0  0  0  0
    3.5032   -1.0053   -3.9536 C   0  0  0  0  0  0  0  0  0  0  0  0
    3.9109   -1.0860   -5.2897 C   0  0  0  0  0  0  0  0  0  0  0  0
    3.3261   -0.2739   -6.2546 C   0  0  0  0  0  0  0  0  0  0  0  0
    2.3400    0.6384   -5.8839 C   0  0  0  0  0  0  0  0  0  0  0  0
    1.9285    0.7278   -4.5377 C   0  0  0  0  0  0  0  0  0  0  0  0
    0.9093    1.7391   -4.1992 N   0  3  0  0  0  0  0  0  0  0  0  0
    0.6881    1.9943   -3.0056 O   0  0  0  0  0  0  0  0  0  0  0  0
    0.3386    2.3058   -5.1408 O   0  5  0  0  0  0  0  0  0  0  0  0
    1.1990    0.6245    0.1810 N   0  0  0  0  0  0  0  0  0  0  0  0
    0.4932    0.7455    1.3998 O   0  0  0  0  0  0  0  0  0  0  0  0
    3.0637   -1.5858   -1.3333 H   0  0  0  0  0  0  0  0  0  0  0  0
    3.7671    0.0716   -1.1902 H   0  0  0  0  0  0  0  0  0  0  0  0
    3.9740   -1.6871   -3.2525 H   0  0  0  0  0  0  0  0  0  0  0  0
    4.6808   -1.8004   -5.5771 H   0  0  0  0  0  0  0  0  0  0  0  0
    3.6356   -0.3513   -7.2944 H   0  0  0  0  0  0  0  0  0  0  0  0
    1.8989    1.2698   -6.6531 H   0  0  0  0  0  0  0  0  0  0  0  0
    0.7841    1.0407   -0.6527 H   0  0  0  0  0  0  0  0  0  0  0  0
    0.9560    0.1004    1.9780 H   0  0  0  0  0  0  0  0  0  0  0  0
  1  2  2  0  0  0  0
  2  3  1  0  0  0  0
  2 14  1  0  0  0  0
  3  4  1  0  0  0  0
  3 16  1  0  0  0  0
  3 17  1  0  0  0  0
  4  5  1  0  0  0  0
  5  6  1  0  0  0  0
  5 10  2  0  0  0  0
  6  7  2  0  0  0  0
  6 18  1  0  0  0  0
  7  8  1  0  0  0  0
  7 19  1  0  0  0  0
  8  9  2  0  0  0  0
  8 20  1  0  0  0  0
  9 10  1  0  0  0  0
  9 21  1  0  0  0  0
 10 11  1  0  0  0  0
 11 12  2  0  0  0  0
 11 13  1  0  0  0  0
 14 15  1  0  0  0  0
 14 22  1  0  0  0  0
 15 23  1  0  0  0  0
M  CHG  2  11   1  13  -1
M  END
>  <Line_Number>
230


> <IC50>
144300

$$$$
