145983154.0
 OpenBabel09092522103D

 24 24  0  0  0  0  0  0  0  0999 V2000
    1.0941    0.1170    0.0196 O   0  0  0  0  0  0  0  0  0  0  0  0
    2.3177    0.0076    0.0600 C   0  0  0  0  0  0  0  0  0  0  0  0
    3.0517   -1.3034    0.2154 C   0  0  0  0  0  0  0  0  0  0  0  0
    2.0683   -2.4602    0.3184 C   0  0  0  0  0  0  0  0  0  0  0  0
    2.7916   -3.6882    0.4566 O   0  0  0  0  0  0  0  0  0  0  0  0
    2.0300   -4.8273    0.5299 C   0  0  0  0  0  0  0  0  0  0  0  0
    0.6309   -4.8704    0.5216 C   0  0  0  0  0  0  0  0  0  0  0  0
   -0.0382   -6.0948    0.5964 C   0  0  0  0  0  0  0  0  0  0  0  0
    0.6914   -7.2726    0.6802 C   0  0  0  0  0  0  0  0  0  0  0  0
    0.0459   -8.4448    0.7489 F   0  0  0  0  0  0  0  0  0  0  0  0
    2.0792   -7.2508    0.6929 C   0  0  0  0  0  0  0  0  0  0  0  0
    2.7491   -6.0251    0.6190 C   0  0  0  0  0  0  0  0  0  0  0  0
    3.1459    1.0962   -0.0353 N   0  0  0  0  0  0  0  0  0  0  0  0
    2.5305    2.3553   -0.1880 O   0  0  0  0  0  0  0  0  0  0  0  0
    3.6806   -1.2617    1.1119 H   0  0  0  0  0  0  0  0  0  0  0  0
    3.7162   -1.4488   -0.6439 H   0  0  0  0  0  0  0  0  0  0  0  0
    1.4552   -2.4924   -0.5909 H   0  0  0  0  0  0  0  0  0  0  0  0
    1.4260   -2.3097    1.1949 H   0  0  0  0  0  0  0  0  0  0  0  0
    0.0277   -3.9701    0.4582 H   0  0  0  0  0  0  0  0  0  0  0  0
   -1.1227   -6.1315    0.5885 H   0  0  0  0  0  0  0  0  0  0  0  0
    2.6301   -8.1834    0.7591 H   0  0  0  0  0  0  0  0  0  0  0  0
    3.8358   -6.0075    0.6290 H   0  0  0  0  0  0  0  0  0  0  0  0
    4.1603    1.0711   -0.0179 H   0  0  0  0  0  0  0  0  0  0  0  0
    1.5749    2.1275   -0.1917 H   0  0  0  0  0  0  0  0  0  0  0  0
  1  2  2  0  0  0  0
  2  3  1  0  0  0  0
  2 13  1  0  0  0  0
  3  4  1  0  0  0  0
  3 15  1  0  0  0  0
  3 16  1  0  0  0  0
  4  5  1  0  0  0  0
  4 17  1  0  0  0  0
  4 18  1  0  0  0  0
  5  6  1  0  0  0  0
  6  7  1  0  0  0  0
  6 12  2  0  0  0  0
  7  8  2  0  0  0  0
  7 19  1  0  0  0  0
  8  9  1  0  0  0  0
  8 20  1  0  0  0  0
  9 10  1  0  0  0  0
  9 11  2  0  0  0  0
 11 12  1  0  0  0  0
 11 21  1  0  0  0  0
 12 22  1  0  0  0  0
 13 14  1  0  0  0  0
 13 23  1  0  0  0  0
 14 24  1  0  0  0  0
M  END
>  <Line_Number>
231


> <IC50>
1130

$$$$
