49859552.0
 OpenBabel09092522103D

 28 28  0  0  0  0  0  0  0  0999 V2000
    1.2795   -0.1761   -0.5219 C   0  0  0  0  0  0  0  0  0  0  0  0
    2.5055    0.1999    0.0941 O   0  0  0  0  0  0  0  0  0  0  0  0
    3.1888   -0.7825    0.7555 C   0  0  0  0  0  0  0  0  0  0  0  0
    2.7754   -2.1047    0.9085 C   0  0  0  0  0  0  0  0  0  0  0  0
    3.5789   -3.0224    1.5980 C   0  0  0  0  0  0  0  0  0  0  0  0
    4.8007   -2.6269    2.1450 C   0  0  0  0  0  0  0  0  0  0  0  0
    5.6700   -3.4330    2.8325 O   0  0  0  0  0  0  0  0  0  0  0  0
    5.2745   -4.7989    2.9784 C   0  0  0  0  0  0  0  0  0  0  0  0
    6.3511   -5.5454    3.7496 C   0  0  0  0  0  0  0  0  0  0  0  0
    5.9611   -6.9924    3.9198 C   0  0  0  0  0  0  0  0  0  0  0  0
    4.9102   -7.4783    3.5085 O   0  0  0  0  0  0  0  0  0  0  0  0
    6.8914   -7.7481    4.5825 N   0  0  0  0  0  0  0  0  0  0  0  0
    6.5521   -9.0992    4.8136 O   0  0  0  0  0  0  0  0  0  0  0  0
    5.2079   -1.3003    1.9994 C   0  0  0  0  0  0  0  0  0  0  0  0
    4.4069   -0.3851    1.3095 C   0  0  0  0  0  0  0  0  0  0  0  0
    0.9015    0.6904   -1.0731 H   0  0  0  0  0  0  0  0  0  0  0  0
    0.5320   -0.4468    0.2312 H   0  0  0  0  0  0  0  0  0  0  0  0
    1.4252   -0.9873   -1.2433 H   0  0  0  0  0  0  0  0  0  0  0  0
    1.8340   -2.4610    0.5046 H   0  0  0  0  0  0  0  0  0  0  0  0
    3.2138   -4.0407    1.6852 H   0  0  0  0  0  0  0  0  0  0  0  0
    5.1530   -5.2590    1.9894 H   0  0  0  0  0  0  0  0  0  0  0  0
    4.3284   -4.8539    3.5314 H   0  0  0  0  0  0  0  0  0  0  0  0
    6.4955   -5.0897    4.7357 H   0  0  0  0  0  0  0  0  0  0  0  0
    7.3081   -5.4859    3.2181 H   0  0  0  0  0  0  0  0  0  0  0  0
    7.7189   -7.3896    5.0484 H   0  0  0  0  0  0  0  0  0  0  0  0
    5.6663   -9.1698    4.3870 H   0  0  0  0  0  0  0  0  0  0  0  0
    6.1545   -0.9732    2.4215 H   0  0  0  0  0  0  0  0  0  0  0  0
    4.7375    0.6449    1.2009 H   0  0  0  0  0  0  0  0  0  0  0  0
  1  2  1  0  0  0  0
  1 16  1  0  0  0  0
  1 17  1  0  0  0  0
  1 18  1  0  0  0  0
  2  3  1  0  0  0  0
  3  4  1  0  0  0  0
  3 15  2  0  0  0  0
  4  5  2  0  0  0  0
  4 19  1  0  0  0  0
  5  6  1  0  0  0  0
  5 20  1  0  0  0  0
  6  7  1  0  0  0  0
  6 14  2  0  0  0  0
  7  8  1  0  0  0  0
  8  9  1  0  0  0  0
  8 21  1  0  0  0  0
  8 22  1  0  0  0  0
  9 10  1  0  0  0  0
  9 23  1  0  0  0  0
  9 24  1  0  0  0  0
 10 11  2  0  0  0  0
 10 12  1  0  0  0  0
 12 13  1  0  0  0  0
 12 25  1  0  0  0  0
 13 26  1  0  0  0  0
 14 15  1  0  0  0  0
 14 27  1  0  0  0  0
 15 28  1  0  0  0  0
M  END
>  <Line_Number>
235


> <IC50>
8350

$$$$
