24705008.0
 OpenBabel09092522103D

 27 27  0  0  0  0  0  0  0  0999 V2000
    2.4434   -0.0883   -0.0096 C   0  0  0  0  0  0  0  0  0  0  0  0
    0.9445   -0.0362   -0.0051 C   0  0  0  0  0  0  0  0  0  0  0  0
    0.2734    1.1904   -0.0087 C   0  0  0  0  0  0  0  0  0  0  0  0
   -1.1192    1.2285   -0.0080 C   0  0  0  0  0  0  0  0  0  0  0  0
   -1.8563    0.0415   -0.0040 C   0  0  0  0  0  0  0  0  0  0  0  0
   -1.2038   -1.1928   -0.0008 C   0  0  0  0  0  0  0  0  0  0  0  0
   -1.8161   -2.4207    0.0029 O   0  0  0  0  0  0  0  0  0  0  0  0
   -3.2458   -2.4021   -0.0003 C   0  0  0  0  0  0  0  0  0  0  0  0
   -3.7667   -3.8313    0.0030 C   0  0  0  0  0  0  0  0  0  0  0  0
   -5.2754   -3.8331   -0.0029 C   0  0  0  0  0  0  0  0  0  0  0  0
   -5.9696   -2.8185    0.0039 O   0  0  0  0  0  0  0  0  0  0  0  0
   -5.8335   -5.0848   -0.0187 N   0  0  0  0  0  0  0  0  0  0  0  0
   -7.2439   -5.1444    0.0009 O   0  0  0  0  0  0  0  0  0  0  0  0
    0.1963   -1.2234   -0.0015 C   0  0  0  0  0  0  0  0  0  0  0  0
    2.8784    0.9167    0.0108 H   0  0  0  0  0  0  0  0  0  0  0  0
    2.8009   -0.5897   -0.9142 H   0  0  0  0  0  0  0  0  0  0  0  0
    2.8062   -0.6265    0.8716 H   0  0  0  0  0  0  0  0  0  0  0  0
    0.8288    2.1253   -0.0125 H   0  0  0  0  0  0  0  0  0  0  0  0
   -1.6370    2.1848   -0.0108 H   0  0  0  0  0  0  0  0  0  0  0  0
   -2.9376    0.1219   -0.0040 H   0  0  0  0  0  0  0  0  0  0  0  0
   -3.6084   -1.8897   -0.9005 H   0  0  0  0  0  0  0  0  0  0  0  0
   -3.6124   -1.8838    0.8948 H   0  0  0  0  0  0  0  0  0  0  0  0
   -3.4055   -4.3644    0.8899 H   0  0  0  0  0  0  0  0  0  0  0  0
   -3.3981   -4.3714   -0.8766 H   0  0  0  0  0  0  0  0  0  0  0  0
   -5.3269   -5.9617    0.0311 H   0  0  0  0  0  0  0  0  0  0  0  0
   -7.4942   -4.1939    0.0116 H   0  0  0  0  0  0  0  0  0  0  0  0
    0.7045   -2.1847    0.0005 H   0  0  0  0  0  0  0  0  0  0  0  0
  1  2  1  0  0  0  0
  1 15  1  0  0  0  0
  1 16  1  0  0  0  0
  1 17  1  0  0  0  0
  2  3  1  0  0  0  0
  2 14  2  0  0  0  0
  3  4  2  0  0  0  0
  3 18  1  0  0  0  0
  4  5  1  0  0  0  0
  4 19  1  0  0  0  0
  5  6  2  0  0  0  0
  5 20  1  0  0  0  0
  6  7  1  0  0  0  0
  6 14  1  0  0  0  0
  7  8  1  0  0  0  0
  8  9  1  0  0  0  0
  8 21  1  0  0  0  0
  8 22  1  0  0  0  0
  9 10  1  0  0  0  0
  9 23  1  0  0  0  0
  9 24  1  0  0  0  0
 10 11  2  0  0  0  0
 10 12  1  0  0  0  0
 12 13  1  0  0  0  0
 12 25  1  0  0  0  0
 13 26  1  0  0  0  0
 14 27  1  0  0  0  0
M  END
>  <Line_Number>
237


> <IC50>
3380

$$$$
