49844558.0
 OpenBabel09092522103D

 30 31  0  0  0  0  0  0  0  0999 V2000
    1.6261   -1.5634    0.1827 O   0  0  0  0  0  0  0  0  0  0  0  0
    0.4661   -0.8428    0.1198 C   0  0  0  0  0  0  0  0  0  0  0  0
   -0.0746   -0.4795   -1.1110 C   0  0  0  0  0  0  0  0  0  0  0  0
   -1.2570    0.2674   -1.1558 C   0  0  0  0  0  0  0  0  0  0  0  0
   -1.9024    0.6584    0.0275 C   0  0  0  0  0  0  0  0  0  0  0  0
   -3.1697    1.4825   -0.0186 C   0  0  0  0  0  0  0  0  0  0  0  0
   -4.4338    0.6169   -0.0376 C   0  0  0  0  0  0  0  0  0  0  0  0
   -5.6967    1.4492    0.0090 C   0  0  0  0  0  0  0  0  0  0  0  0
   -6.3117    1.8852   -1.1735 C   0  0  0  0  0  0  0  0  0  0  0  0
   -7.4817    2.6495   -1.1247 C   0  0  0  0  0  0  0  0  0  0  0  0
   -8.0390    2.9865    0.1062 C   0  0  0  0  0  0  0  0  0  0  0  0
   -9.4833    3.9208    0.1660 Cl  0  0  0  0  0  0  0  0  0  0  0  0
   -7.4349    2.5698    1.2895 C   0  0  0  0  0  0  0  0  0  0  0  0
   -6.2657    1.8053    1.2412 C   0  0  0  0  0  0  0  0  0  0  0  0
   -1.3531    0.2736    1.2608 C   0  0  0  0  0  0  0  0  0  0  0  0
   -0.1724   -0.4697    1.3018 C   0  0  0  0  0  0  0  0  0  0  0  0
    0.3739   -0.8343    2.5007 O   0  0  0  0  0  0  0  0  0  0  0  0
    1.9452   -1.7306   -0.7168 H   0  0  0  0  0  0  0  0  0  0  0  0
    0.4116   -0.7598   -2.0405 H   0  0  0  0  0  0  0  0  0  0  0  0
   -1.6663    0.5506   -2.1234 H   0  0  0  0  0  0  0  0  0  0  0  0
   -3.1440    2.1377   -0.8992 H   0  0  0  0  0  0  0  0  0  0  0  0
   -3.1838    2.1583    0.8468 H   0  0  0  0  0  0  0  0  0  0  0  0
   -4.4353   -0.0787    0.8105 H   0  0  0  0  0  0  0  0  0  0  0  0
   -4.4492   -0.0145   -0.9358 H   0  0  0  0  0  0  0  0  0  0  0  0
   -5.8892    1.6269   -2.1422 H   0  0  0  0  0  0  0  0  0  0  0  0
   -7.9536    2.9743   -2.0485 H   0  0  0  0  0  0  0  0  0  0  0  0
   -7.8690    2.8318    2.2508 H   0  0  0  0  0  0  0  0  0  0  0  0
   -5.8052    1.4835    2.1726 H   0  0  0  0  0  0  0  0  0  0  0  0
   -1.8480    0.5654    2.1825 H   0  0  0  0  0  0  0  0  0  0  0  0
   -0.1650   -0.4699    3.2185 H   0  0  0  0  0  0  0  0  0  0  0  0
  1  2  1  0  0  0  0
  1 18  1  0  0  0  0
  2  3  1  0  0  0  0
  2 16  2  0  0  0  0
  3  4  2  0  0  0  0
  3 19  1  0  0  0  0
  4  5  1  0  0  0  0
  4 20  1  0  0  0  0
  5  6  1  0  0  0  0
  5 15  2  0  0  0  0
  6  7  1  0  0  0  0
  6 21  1  0  0  0  0
  6 22  1  0  0  0  0
  7  8  1  0  0  0  0
  7 23  1  0  0  0  0
  7 24  1  0  0  0  0
  8  9  1  0  0  0  0
  8 14  2  0  0  0  0
  9 10  2  0  0  0  0
  9 25  1  0  0  0  0
 10 11  1  0  0  0  0
 10 26  1  0  0  0  0
 11 12  1  0  0  0  0
 11 13  2  0  0  0  0
 13 14  1  0  0  0  0
 13 27  1  0  0  0  0
 14 28  1  0  0  0  0
 15 16  1  0  0  0  0
 15 29  1  0  0  0  0
 16 17  1  0  0  0  0
 17 30  1  0  0  0  0
M  END
>  <Line_Number>
23


> <IC50>
29200

$$$$
