130677882.0
 OpenBabel09092522103D

 24 24  0  0  0  0  0  0  0  0999 V2000
    2.4945    0.1141    0.0092 C   0  0  0  0  0  0  0  0  0  0  0  0
    0.9921    0.0514    0.0201 C   0  0  0  0  0  0  0  0  0  0  0  0
    0.2628    1.2531   -0.0112 C   0  0  0  0  0  0  0  0  0  0  0  0
   -1.1312    1.2447   -0.0245 C   0  0  0  0  0  0  0  0  0  0  0  0
   -1.8135    0.0354   -0.0428 C   0  0  0  0  0  0  0  0  0  0  0  0
   -1.1037   -1.1646   -0.0164 C   0  0  0  0  0  0  0  0  0  0  0  0
    0.2966   -1.1710    0.0580 C   0  0  0  0  0  0  0  0  0  0  0  0
    1.0436   -2.3228    0.1740 O   0  0  0  0  0  0  0  0  0  0  0  0
    0.3180   -3.4577    0.6527 C   0  0  0  0  0  0  0  0  0  0  0  0
    1.1876   -4.5924    1.1717 C   0  0  0  0  0  0  0  0  0  0  0  0
    0.7234   -5.6007    1.7078 O   0  0  0  0  0  0  0  0  0  0  0  0
    2.5329   -4.4246    0.9987 N   0  0  0  0  0  0  0  0  0  0  0  0
    3.3738   -5.4621    1.4543 O   0  0  0  0  0  0  0  0  0  0  0  0
    2.8486    1.1519    0.0112 H   0  0  0  0  0  0  0  0  0  0  0  0
    2.8876   -0.3615   -0.8951 H   0  0  0  0  0  0  0  0  0  0  0  0
    2.9104   -0.3755    0.8945 H   0  0  0  0  0  0  0  0  0  0  0  0
    0.7799    2.2105   -0.0192 H   0  0  0  0  0  0  0  0  0  0  0  0
   -1.6828    2.1808   -0.0303 H   0  0  0  0  0  0  0  0  0  0  0  0
   -2.8999    0.0207   -0.0712 H   0  0  0  0  0  0  0  0  0  0  0  0
   -1.6805   -2.0833   -0.0509 H   0  0  0  0  0  0  0  0  0  0  0  0
   -0.2787   -3.8738   -0.1658 H   0  0  0  0  0  0  0  0  0  0  0  0
   -0.3208   -3.1738    1.4988 H   0  0  0  0  0  0  0  0  0  0  0  0
    2.9538   -3.6367    0.5152 H   0  0  0  0  0  0  0  0  0  0  0  0
    2.7302   -6.0972    1.8389 H   0  0  0  0  0  0  0  0  0  0  0  0
  1  2  1  0  0  0  0
  1 14  1  0  0  0  0
  1 15  1  0  0  0  0
  1 16  1  0  0  0  0
  2  3  1  0  0  0  0
  2  7  2  0  0  0  0
  3  4  2  0  0  0  0
  3 17  1  0  0  0  0
  4  5  1  0  0  0  0
  4 18  1  0  0  0  0
  5  6  2  0  0  0  0
  5 19  1  0  0  0  0
  6  7  1  0  0  0  0
  6 20  1  0  0  0  0
  7  8  1  0  0  0  0
  8  9  1  0  0  0  0
  9 10  1  0  0  0  0
  9 21  1  0  0  0  0
  9 22  1  0  0  0  0
 10 11  2  0  0  0  0
 10 12  1  0  0  0  0
 12 13  1  0  0  0  0
 12 23  1  0  0  0  0
 13 24  1  0  0  0  0
M  END
>  <Line_Number>
240


> <IC50>
153600

$$$$
