130723063.0
 OpenBabel09092522103D

 21 21  0  0  0  0  0  0  0  0999 V2000
    2.4288   -1.3717    0.5155 O   0  0  0  0  0  0  0  0  0  0  0  0
    2.0916   -0.4385   -0.2097 C   0  0  0  0  0  0  0  0  0  0  0  0
    2.7911   -0.1052   -1.5305 C   0  0  0  0  0  0  0  0  0  0  0  0
    2.1480    0.9922   -2.1822 O   0  0  0  0  0  0  0  0  0  0  0  0
    2.6372    1.3766   -3.4018 C   0  0  0  0  0  0  0  0  0  0  0  0
    1.9666    2.4643   -3.9739 C   0  0  0  0  0  0  0  0  0  0  0  0
    2.3470    2.9638   -5.2239 C   0  0  0  0  0  0  0  0  0  0  0  0
    3.4049    2.3793   -5.9171 C   0  0  0  0  0  0  0  0  0  0  0  0
    4.0820    1.2985   -5.3555 C   0  0  0  0  0  0  0  0  0  0  0  0
    3.7003    0.8047   -4.1070 C   0  0  0  0  0  0  0  0  0  0  0  0
    4.3871   -0.2329   -3.6122 F   0  0  0  0  0  0  0  0  0  0  0  0
    1.0498    0.3934    0.1049 N   0  0  0  0  0  0  0  0  0  0  0  0
    0.3034    0.1200    1.2684 O   0  0  0  0  0  0  0  0  0  0  0  0
    2.7295   -1.0042   -2.1534 H   0  0  0  0  0  0  0  0  0  0  0  0
    3.8284    0.1540   -1.2936 H   0  0  0  0  0  0  0  0  0  0  0  0
    1.1389    2.9309   -3.4447 H   0  0  0  0  0  0  0  0  0  0  0  0
    1.8161    3.8087   -5.6544 H   0  0  0  0  0  0  0  0  0  0  0  0
    3.7010    2.7641   -6.8897 H   0  0  0  0  0  0  0  0  0  0  0  0
    4.9097    0.8323   -5.8824 H   0  0  0  0  0  0  0  0  0  0  0  0
    0.7012    1.1009   -0.5356 H   0  0  0  0  0  0  0  0  0  0  0  0
    0.7225   -0.7016    1.6036 H   0  0  0  0  0  0  0  0  0  0  0  0
  1  2  2  0  0  0  0
  2  3  1  0  0  0  0
  2 12  1  0  0  0  0
  3  4  1  0  0  0  0
  3 14  1  0  0  0  0
  3 15  1  0  0  0  0
  4  5  1  0  0  0  0
  5  6  1  0  0  0  0
  5 10  2  0  0  0  0
  6  7  2  0  0  0  0
  6 16  1  0  0  0  0
  7  8  1  0  0  0  0
  7 17  1  0  0  0  0
  8  9  2  0  0  0  0
  8 18  1  0  0  0  0
  9 10  1  0  0  0  0
  9 19  1  0  0  0  0
 10 11  1  0  0  0  0
 12 13  1  0  0  0  0
 12 20  1  0  0  0  0
 13 21  1  0  0  0  0
M  END
>  <Line_Number>
241


> <IC50>
121500

$$$$
