95562486.0
 OpenBabel09092522103D

 21 21  0  0  0  0  0  0  0  0999 V2000
   -1.0048   -0.4188   -0.2922 O   0  0  0  0  0  0  0  0  0  0  0  0
    0.1600   -0.7935   -0.1489 C   0  0  0  0  0  0  0  0  0  0  0  0
    0.6603   -2.1290   -0.6886 C   0  0  0  0  0  0  0  0  0  0  0  0
    2.0490   -2.3510   -0.4561 O   0  0  0  0  0  0  0  0  0  0  0  0
    2.5212   -3.5683   -0.8905 C   0  0  0  0  0  0  0  0  0  0  0  0
    2.0377   -4.2151   -2.0331 C   0  0  0  0  0  0  0  0  0  0  0  0
    2.5684   -5.4438   -2.4353 C   0  0  0  0  0  0  0  0  0  0  0  0
    3.5983   -6.0339   -1.7090 C   0  0  0  0  0  0  0  0  0  0  0  0
    4.1094   -5.3891   -0.5820 C   0  0  0  0  0  0  0  0  0  0  0  0
    3.5786   -4.1572   -0.1792 C   0  0  0  0  0  0  0  0  0  0  0  0
    4.2513   -3.4038    1.2232 Cl  0  0  0  0  0  0  0  0  0  0  0  0
    1.0951   -0.0194    0.4820 N   0  0  0  0  0  0  0  0  0  0  0  0
    0.6869    1.2826    0.8485 O   0  0  0  0  0  0  0  0  0  0  0  0
    0.4567   -2.0872   -1.7631 H   0  0  0  0  0  0  0  0  0  0  0  0
    0.0704   -2.9200   -0.2106 H   0  0  0  0  0  0  0  0  0  0  0  0
    1.2592   -3.7827   -2.6526 H   0  0  0  0  0  0  0  0  0  0  0  0
    2.1786   -5.9340   -3.3250 H   0  0  0  0  0  0  0  0  0  0  0  0
    4.0092   -6.9901   -2.0247 H   0  0  0  0  0  0  0  0  0  0  0  0
    4.9204   -5.8499   -0.0256 H   0  0  0  0  0  0  0  0  0  0  0  0
    2.0916   -0.2166    0.4430 H   0  0  0  0  0  0  0  0  0  0  0  0
   -0.2451    1.3067    0.5390 H   0  0  0  0  0  0  0  0  0  0  0  0
  1  2  2  0  0  0  0
  2  3  1  0  0  0  0
  2 12  1  0  0  0  0
  3  4  1  0  0  0  0
  3 14  1  0  0  0  0
  3 15  1  0  0  0  0
  4  5  1  0  0  0  0
  5  6  1  0  0  0  0
  5 10  2  0  0  0  0
  6  7  2  0  0  0  0
  6 16  1  0  0  0  0
  7  8  1  0  0  0  0
  7 17  1  0  0  0  0
  8  9  2  0  0  0  0
  8 18  1  0  0  0  0
  9 10  1  0  0  0  0
  9 19  1  0  0  0  0
 10 11  1  0  0  0  0
 12 13  1  0  0  0  0
 12 20  1  0  0  0  0
 13 21  1  0  0  0  0
M  END
>  <Line_Number>
243


> <IC50>
78500

$$$$
