145984703.0
 OpenBabel09092522103D

 21 21  0  0  0  0  0  0  0  0999 V2000
    2.7834    0.2303   -1.3930 O   0  0  0  0  0  0  0  0  0  0  0  0
    2.2276    0.5985   -0.3581 C   0  0  0  0  0  0  0  0  0  0  0  0
    2.9526    1.3689    0.7392 C   0  0  0  0  0  0  0  0  0  0  0  0
    2.1349    1.5202    1.8963 O   0  0  0  0  0  0  0  0  0  0  0  0
    2.6869    2.1817    2.9639 C   0  0  0  0  0  0  0  0  0  0  0  0
    3.7069    3.1321    2.8522 C   0  0  0  0  0  0  0  0  0  0  0  0
    4.1821    3.7877    3.9909 C   0  0  0  0  0  0  0  0  0  0  0  0
    5.4276    4.9654    3.8336 Cl  0  0  0  0  0  0  0  0  0  0  0  0
    3.6516    3.5086    5.2494 C   0  0  0  0  0  0  0  0  0  0  0  0
    2.6289    2.5684    5.3704 C   0  0  0  0  0  0  0  0  0  0  0  0
    2.1445    1.9151    4.2337 C   0  0  0  0  0  0  0  0  0  0  0  0
    0.8740    0.7610    4.4400 Cl  0  0  0  0  0  0  0  0  0  0  0  0
    0.8919    0.3831   -0.1325 N   0  0  0  0  0  0  0  0  0  0  0  0
    0.2014   -0.3897   -1.0913 O   0  0  0  0  0  0  0  0  0  0  0  0
    3.2041    2.3424    0.3057 H   0  0  0  0  0  0  0  0  0  0  0  0
    3.8566    0.8055    0.9976 H   0  0  0  0  0  0  0  0  0  0  0  0
    4.1352    3.4014    1.8928 H   0  0  0  0  0  0  0  0  0  0  0  0
    4.0244    4.0225    6.1310 H   0  0  0  0  0  0  0  0  0  0  0  0
    2.2104    2.3551    6.3515 H   0  0  0  0  0  0  0  0  0  0  0  0
    0.4763    0.4773    0.7911 H   0  0  0  0  0  0  0  0  0  0  0  0
    0.8955   -0.5643   -1.7639 H   0  0  0  0  0  0  0  0  0  0  0  0
  1  2  2  0  0  0  0
  2  3  1  0  0  0  0
  2 13  1  0  0  0  0
  3  4  1  0  0  0  0
  3 15  1  0  0  0  0
  3 16  1  0  0  0  0
  4  5  1  0  0  0  0
  5  6  1  0  0  0  0
  5 11  2  0  0  0  0
  6  7  2  0  0  0  0
  6 17  1  0  0  0  0
  7  8  1  0  0  0  0
  7  9  1  0  0  0  0
  9 10  2  0  0  0  0
  9 18  1  0  0  0  0
 10 11  1  0  0  0  0
 10 19  1  0  0  0  0
 11 12  1  0  0  0  0
 13 14  1  0  0  0  0
 13 20  1  0  0  0  0
 14 21  1  0  0  0  0
M  END
>  <Line_Number>
244


> <IC50>
9020

$$$$
