145984003.0
 OpenBabel09092522103D

 21 21  0  0  0  0  0  0  0  0999 V2000
    2.6909    0.7278   -1.4296 O   0  0  0  0  0  0  0  0  0  0  0  0
    2.2223    0.6938   -0.2895 C   0  0  0  0  0  0  0  0  0  0  0  0
    2.9648    1.2582    0.9186 C   0  0  0  0  0  0  0  0  0  0  0  0
    2.1900    1.2575    2.1093 O   0  0  0  0  0  0  0  0  0  0  0  0
    2.7859    1.6195    3.2966 C   0  0  0  0  0  0  0  0  0  0  0  0
    3.8016    2.5672    3.4990 C   0  0  0  0  0  0  0  0  0  0  0  0
    4.5576    3.5144    2.2630 Cl  0  0  0  0  0  0  0  0  0  0  0  0
    4.2526    2.8687    4.7973 C   0  0  0  0  0  0  0  0  0  0  0  0
    3.6967    2.2514    5.9112 C   0  0  0  0  0  0  0  0  0  0  0  0
    2.6831    1.3194    5.7360 C   0  0  0  0  0  0  0  0  0  0  0  0
    2.2326    1.0097    4.4438 C   0  0  0  0  0  0  0  0  0  0  0  0
    0.9601   -0.1630    4.3176 Cl  0  0  0  0  0  0  0  0  0  0  0  0
    0.9732    0.1875   -0.0403 N   0  0  0  0  0  0  0  0  0  0  0  0
    0.1918   -0.0998   -1.1855 O   0  0  0  0  0  0  0  0  0  0  0  0
    3.1635    2.2868    0.6140 H   0  0  0  0  0  0  0  0  0  0  0  0
    3.8874    0.6828    1.0519 H   0  0  0  0  0  0  0  0  0  0  0  0
    5.0335    3.6149    4.9456 H   0  0  0  0  0  0  0  0  0  0  0  0
    4.0454    2.5076    6.9084 H   0  0  0  0  0  0  0  0  0  0  0  0
    2.2386    0.8421    6.6081 H   0  0  0  0  0  0  0  0  0  0  0  0
    0.4796    0.3840    0.8260 H   0  0  0  0  0  0  0  0  0  0  0  0
    0.7778    0.1853   -1.9206 H   0  0  0  0  0  0  0  0  0  0  0  0
  1  2  2  0  0  0  0
  2  3  1  0  0  0  0
  2 13  1  0  0  0  0
  3  4  1  0  0  0  0
  3 15  1  0  0  0  0
  3 16  1  0  0  0  0
  4  5  1  0  0  0  0
  5  6  1  0  0  0  0
  5 11  2  0  0  0  0
  6  7  1  0  0  0  0
  6  8  2  0  0  0  0
  8  9  1  0  0  0  0
  8 17  1  0  0  0  0
  9 10  2  0  0  0  0
  9 18  1  0  0  0  0
 10 11  1  0  0  0  0
 10 19  1  0  0  0  0
 11 12  1  0  0  0  0
 13 14  1  0  0  0  0
 13 20  1  0  0  0  0
 14 21  1  0  0  0  0
M  END
>  <Line_Number>
246


> <IC50>
353200

$$$$
