21935074.0
 OpenBabel09092522103D

 24 24  0  0  0  0  0  0  0  0999 V2000
    1.0463    0.1838    0.1797 O   0  0  0  0  0  0  0  0  0  0  0  0
    2.2683    0.0808    0.1036 C   0  0  0  0  0  0  0  0  0  0  0  0
    2.9880   -0.9901   -0.6815 C   0  0  0  0  0  0  0  0  0  0  0  0
    1.9870   -1.8689   -1.4166 C   0  0  0  0  0  0  0  0  0  0  0  0
    2.6922   -2.8699   -2.1560 O   0  0  0  0  0  0  0  0  0  0  0  0
    1.9137   -3.7249   -2.8968 C   0  0  0  0  0  0  0  0  0  0  0  0
    0.5173   -3.7098   -2.9522 C   0  0  0  0  0  0  0  0  0  0  0  0
   -0.1680   -4.6311   -3.7486 C   0  0  0  0  0  0  0  0  0  0  0  0
    0.5356   -5.5733   -4.4939 C   0  0  0  0  0  0  0  0  0  0  0  0
    1.9281   -5.5968   -4.4422 C   0  0  0  0  0  0  0  0  0  0  0  0
    2.6135   -4.6751   -3.6464 C   0  0  0  0  0  0  0  0  0  0  0  0
    3.1093    0.9558    0.7449 N   0  0  0  0  0  0  0  0  0  0  0  0
    2.4909    1.9275    1.5639 O   0  0  0  0  0  0  0  0  0  0  0  0
    3.5907   -1.5962    0.0037 H   0  0  0  0  0  0  0  0  0  0  0  0
    3.6745   -0.5208   -1.3947 H   0  0  0  0  0  0  0  0  0  0  0  0
    1.3988   -1.2461   -2.1023 H   0  0  0  0  0  0  0  0  0  0  0  0
    1.3222   -2.3475   -0.6866 H   0  0  0  0  0  0  0  0  0  0  0  0
   -0.0739   -2.9956   -2.3887 H   0  0  0  0  0  0  0  0  0  0  0  0
   -1.2544   -4.6093   -3.7852 H   0  0  0  0  0  0  0  0  0  0  0  0
   -0.0006   -6.2874   -5.1132 H   0  0  0  0  0  0  0  0  0  0  0  0
    2.4811   -6.3313   -5.0214 H   0  0  0  0  0  0  0  0  0  0  0  0
    3.6995   -4.6999   -3.6096 H   0  0  0  0  0  0  0  0  0  0  0  0
    4.1055    0.8127    0.8718 H   0  0  0  0  0  0  0  0  0  0  0  0
    1.5355    1.7300    1.4430 H   0  0  0  0  0  0  0  0  0  0  0  0
  1  2  2  0  0  0  0
  2  3  1  0  0  0  0
  2 12  1  0  0  0  0
  3  4  1  0  0  0  0
  3 14  1  0  0  0  0
  3 15  1  0  0  0  0
  4  5  1  0  0  0  0
  4 16  1  0  0  0  0
  4 17  1  0  0  0  0
  5  6  1  0  0  0  0
  6  7  1  0  0  0  0
  6 11  2  0  0  0  0
  7  8  2  0  0  0  0
  7 18  1  0  0  0  0
  8  9  1  0  0  0  0
  8 19  1  0  0  0  0
  9 10  2  0  0  0  0
  9 20  1  0  0  0  0
 10 11  1  0  0  0  0
 10 21  1  0  0  0  0
 11 22  1  0  0  0  0
 12 13  1  0  0  0  0
 12 23  1  0  0  0  0
 13 24  1  0  0  0  0
M  END
>  <Line_Number>
248


> <IC50>
4180

$$$$
