145983648.0
 OpenBabel09092522103D

 24 24  0  0  0  0  0  0  0  0999 V2000
    1.0844   -0.0147    0.2165 O   0  0  0  0  0  0  0  0  0  0  0  0
    2.3094    0.0199    0.1078 C   0  0  0  0  0  0  0  0  0  0  0  0
    3.0411    0.4975   -1.1206 C   0  0  0  0  0  0  0  0  0  0  0  0
    2.0577    0.9745   -2.1777 C   0  0  0  0  0  0  0  0  0  0  0  0
    2.7904    1.4194   -3.3225 O   0  0  0  0  0  0  0  0  0  0  0  0
    2.0455    1.9154   -4.3605 C   0  0  0  0  0  0  0  0  0  0  0  0
    0.6500    1.9816   -4.4034 C   0  0  0  0  0  0  0  0  0  0  0  0
    0.0022    2.5177   -5.5212 C   0  0  0  0  0  0  0  0  0  0  0  0
    0.7486    2.9866   -6.5986 C   0  0  0  0  0  0  0  0  0  0  0  0
   -0.0525    3.6488   -7.9689 Cl  0  0  0  0  0  0  0  0  0  0  0  0
    2.1391    2.9221   -6.5691 C   0  0  0  0  0  0  0  0  0  0  0  0
    2.7850    2.3857   -5.4505 C   0  0  0  0  0  0  0  0  0  0  0  0
    3.1382   -0.3846    1.1232 N   0  0  0  0  0  0  0  0  0  0  0  0
    2.5148   -0.8950    2.2831 O   0  0  0  0  0  0  0  0  0  0  0  0
    3.6538   -0.3204   -1.5167 H   0  0  0  0  0  0  0  0  0  0  0  0
    3.7216    1.3110   -0.8440 H   0  0  0  0  0  0  0  0  0  0  0  0
    1.4628    1.8021   -1.7706 H   0  0  0  0  0  0  0  0  0  0  0  0
    1.3959    0.1459   -2.4595 H   0  0  0  0  0  0  0  0  0  0  0  0
    0.0316    1.6257   -3.5857 H   0  0  0  0  0  0  0  0  0  0  0  0
   -1.0833    2.5646   -5.5406 H   0  0  0  0  0  0  0  0  0  0  0  0
    2.7254    3.2858   -7.4086 H   0  0  0  0  0  0  0  0  0  0  0  0
    3.8706    2.3372   -5.4299 H   0  0  0  0  0  0  0  0  0  0  0  0
    4.1436   -0.4956    1.0504 H   0  0  0  0  0  0  0  0  0  0  0  0
    1.5601   -0.8090    2.0662 H   0  0  0  0  0  0  0  0  0  0  0  0
  1  2  2  0  0  0  0
  2  3  1  0  0  0  0
  2 13  1  0  0  0  0
  3  4  1  0  0  0  0
  3 15  1  0  0  0  0
  3 16  1  0  0  0  0
  4  5  1  0  0  0  0
  4 17  1  0  0  0  0
  4 18  1  0  0  0  0
  5  6  1  0  0  0  0
  6  7  1  0  0  0  0
  6 12  2  0  0  0  0
  7  8  2  0  0  0  0
  7 19  1  0  0  0  0
  8  9  1  0  0  0  0
  8 20  1  0  0  0  0
  9 10  1  0  0  0  0
  9 11  2  0  0  0  0
 11 12  1  0  0  0  0
 11 21  1  0  0  0  0
 12 22  1  0  0  0  0
 13 14  1  0  0  0  0
 13 23  1  0  0  0  0
 14 24  1  0  0  0  0
M  END
>  <Line_Number>
249


> <IC50>
247

$$$$
