49844701.0
 OpenBabel09092522103D

 36 37  0  0  0  0  0  0  0  0999 V2000
    0.9118   -0.4383   -0.1698 C   0  0  0  0  0  0  0  0  0  0  0  0
    2.2633    0.0077   -0.1336 O   0  0  0  0  0  0  0  0  0  0  0  0
    2.9262   -0.1311    1.0574 C   0  0  0  0  0  0  0  0  0  0  0  0
    2.5590   -1.0781    2.0175 C   0  0  0  0  0  0  0  0  0  0  0  0
    3.2943   -1.2353    3.1957 C   0  0  0  0  0  0  0  0  0  0  0  0
    4.4425   -0.4768    3.4340 C   0  0  0  0  0  0  0  0  0  0  0  0
    5.2510   -0.6085    4.7107 C   0  0  0  0  0  0  0  0  0  0  0  0
    5.2611   -2.0242    5.3102 C   0  0  0  0  0  0  0  0  0  0  0  0
    6.0851   -2.1809    6.5667 C   0  0  0  0  0  0  0  0  0  0  0  0
    5.7979   -1.4292    7.7155 C   0  0  0  0  0  0  0  0  0  0  0  0
    6.5005   -1.6518    8.9024 C   0  0  0  0  0  0  0  0  0  0  0  0
    7.4892   -2.6316    8.9489 C   0  0  0  0  0  0  0  0  0  0  0  0
    8.3338   -2.9259   10.4187 Cl  0  0  0  0  0  0  0  0  0  0  0  0
    7.7874   -3.3851    7.8167 C   0  0  0  0  0  0  0  0  0  0  0  0
    7.0871   -3.1604    6.6295 C   0  0  0  0  0  0  0  0  0  0  0  0
    4.8082    0.4771    2.4726 C   0  0  0  0  0  0  0  0  0  0  0  0
    4.0604    0.6631    1.2958 C   0  0  0  0  0  0  0  0  0  0  0  0
    4.5817    1.6270    0.4698 O   0  0  0  0  0  0  0  0  0  0  0  0
    3.6513    2.3545   -0.3240 C   0  0  0  0  0  0  0  0  0  0  0  0
    0.4817   -0.1249   -1.1254 H   0  0  0  0  0  0  0  0  0  0  0  0
    0.3227    0.0225    0.6307 H   0  0  0  0  0  0  0  0  0  0  0  0
    0.8516   -1.5304   -0.1272 H   0  0  0  0  0  0  0  0  0  0  0  0
    1.7087   -1.7373    1.8732 H   0  0  0  0  0  0  0  0  0  0  0  0
    2.9474   -1.9775    3.9091 H   0  0  0  0  0  0  0  0  0  0  0  0
    4.8478    0.1112    5.4336 H   0  0  0  0  0  0  0  0  0  0  0  0
    6.2888   -0.3099    4.5113 H   0  0  0  0  0  0  0  0  0  0  0  0
    5.6158   -2.7279    4.5456 H   0  0  0  0  0  0  0  0  0  0  0  0
    4.2447   -2.3429    5.5704 H   0  0  0  0  0  0  0  0  0  0  0  0
    5.0082   -0.6811    7.7045 H   0  0  0  0  0  0  0  0  0  0  0  0
    6.2608   -1.0697    9.7881 H   0  0  0  0  0  0  0  0  0  0  0  0
    8.5514   -4.1568    7.8535 H   0  0  0  0  0  0  0  0  0  0  0  0
    7.3167   -3.7710    5.7584 H   0  0  0  0  0  0  0  0  0  0  0  0
    5.6878    1.0994    2.6314 H   0  0  0  0  0  0  0  0  0  0  0  0
    4.1323    3.2884   -0.6285 H   0  0  0  0  0  0  0  0  0  0  0  0
    2.7470    2.6192    0.2373 H   0  0  0  0  0  0  0  0  0  0  0  0
    3.4075    1.8071   -1.2403 H   0  0  0  0  0  0  0  0  0  0  0  0
  1  2  1  0  0  0  0
  1 20  1  0  0  0  0
  1 21  1  0  0  0  0
  1 22  1  0  0  0  0
  2  3  1  0  0  0  0
  3  4  1  0  0  0  0
  3 17  2  0  0  0  0
  4  5  2  0  0  0  0
  4 23  1  0  0  0  0
  5  6  1  0  0  0  0
  5 24  1  0  0  0  0
  6  7  1  0  0  0  0
  6 16  2  0  0  0  0
  7  8  1  0  0  0  0
  7 25  1  0  0  0  0
  7 26  1  0  0  0  0
  8  9  1  0  0  0  0
  8 27  1  0  0  0  0
  8 28  1  0  0  0  0
  9 10  1  0  0  0  0
  9 15  2  0  0  0  0
 10 11  2  0  0  0  0
 10 29  1  0  0  0  0
 11 12  1  0  0  0  0
 11 30  1  0  0  0  0
 12 13  1  0  0  0  0
 12 14  2  0  0  0  0
 14 15  1  0  0  0  0
 14 31  1  0  0  0  0
 15 32  1  0  0  0  0
 16 17  1  0  0  0  0
 16 33  1  0  0  0  0
 17 18  1  0  0  0  0
 18 19  1  0  0  0  0
 19 34  1  0  0  0  0
 19 35  1  0  0  0  0
 19 36  1  0  0  0  0
M  END
>  <Line_Number>
24


> <IC50>
254000

$$$$
