145984816.0
 OpenBabel09092522103D

 24 24  0  0  0  0  0  0  0  0999 V2000
    0.9880   -0.0277    0.0797 O   0  0  0  0  0  0  0  0  0  0  0  0
    2.2131    0.0710    0.0403 C   0  0  0  0  0  0  0  0  0  0  0  0
    2.9587    1.3763   -0.1066 C   0  0  0  0  0  0  0  0  0  0  0  0
    1.9859    2.5412   -0.1943 C   0  0  0  0  0  0  0  0  0  0  0  0
    2.7204    3.7626   -0.3254 O   0  0  0  0  0  0  0  0  0  0  0  0
    1.9681    4.9085   -0.3870 C   0  0  0  0  0  0  0  0  0  0  0  0
    0.5696    4.9626   -0.3722 C   0  0  0  0  0  0  0  0  0  0  0  0
   -0.0966    6.1896   -0.4358 C   0  0  0  0  0  0  0  0  0  0  0  0
    0.6319    7.3726   -0.5163 C   0  0  0  0  0  0  0  0  0  0  0  0
    2.0203    7.3162   -0.5338 C   0  0  0  0  0  0  0  0  0  0  0  0
    2.7215    8.4558   -0.6116 F   0  0  0  0  0  0  0  0  0  0  0  0
    2.6942    6.0995   -0.4717 C   0  0  0  0  0  0  0  0  0  0  0  0
    3.0337   -1.0231    0.1298 N   0  0  0  0  0  0  0  0  0  0  0  0
    2.4096   -2.2810    0.2631 O   0  0  0  0  0  0  0  0  0  0  0  0
    3.5829    1.3371   -1.0066 H   0  0  0  0  0  0  0  0  0  0  0  0
    3.6286    1.5081    0.7507 H   0  0  0  0  0  0  0  0  0  0  0  0
    1.3776    2.5712    0.7185 H   0  0  0  0  0  0  0  0  0  0  0  0
    1.3376    2.4043   -1.0690 H   0  0  0  0  0  0  0  0  0  0  0  0
   -0.0384    4.0653   -0.3111 H   0  0  0  0  0  0  0  0  0  0  0  0
   -1.1840    6.2168   -0.4217 H   0  0  0  0  0  0  0  0  0  0  0  0
    0.1286    8.3331   -0.5654 H   0  0  0  0  0  0  0  0  0  0  0  0
    3.7778    6.0896   -0.4871 H   0  0  0  0  0  0  0  0  0  0  0  0
    4.0460   -1.0072    0.0848 H   0  0  0  0  0  0  0  0  0  0  0  0
    1.4557   -2.0465    0.2653 H   0  0  0  0  0  0  0  0  0  0  0  0
  1  2  2  0  0  0  0
  2  3  1  0  0  0  0
  2 13  1  0  0  0  0
  3  4  1  0  0  0  0
  3 15  1  0  0  0  0
  3 16  1  0  0  0  0
  4  5  1  0  0  0  0
  4 17  1  0  0  0  0
  4 18  1  0  0  0  0
  5  6  1  0  0  0  0
  6  7  1  0  0  0  0
  6 12  2  0  0  0  0
  7  8  2  0  0  0  0
  7 19  1  0  0  0  0
  8  9  1  0  0  0  0
  8 20  1  0  0  0  0
  9 10  2  0  0  0  0
  9 21  1  0  0  0  0
 10 11  1  0  0  0  0
 10 12  1  0  0  0  0
 12 22  1  0  0  0  0
 13 14  1  0  0  0  0
 13 23  1  0  0  0  0
 14 24  1  0  0  0  0
M  END
>  <Line_Number>
252


> <IC50>
2050

$$$$
