145984444.0
 OpenBabel09092522103D

 23 23  0  0  0  0  0  0  0  0999 V2000
    1.1261    1.1533   -0.9266 O   0  0  0  0  0  0  0  0  0  0  0  0
    1.1254    0.8439    0.2642 C   0  0  0  0  0  0  0  0  0  0  0  0
    2.2078    1.2929    1.2419 C   0  0  0  0  0  0  0  0  0  0  0  0
    2.0636    0.5795    2.4693 O   0  0  0  0  0  0  0  0  0  0  0  0
    2.5142    1.2186    3.5893 C   0  0  0  0  0  0  0  0  0  0  0  0
    3.6090    2.0850    3.6309 C   0  0  0  0  0  0  0  0  0  0  0  0
    3.9848    2.6784    4.8414 C   0  0  0  0  0  0  0  0  0  0  0  0
    3.2754    2.4026    6.0116 C   0  0  0  0  0  0  0  0  0  0  0  0
    2.1928    1.5172    5.9633 C   0  0  0  0  0  0  0  0  0  0  0  0
    1.4346    1.2205    7.1857 N   0  3  0  0  0  0  0  0  0  0  0  0
    1.7794    1.7921    8.2278 O   0  0  0  0  0  0  0  0  0  0  0  0
    0.4942    0.4181    7.1008 O   0  5  0  0  0  0  0  0  0  0  0  0
    1.8185    0.9150    4.7602 C   0  0  0  0  0  0  0  0  0  0  0  0
    0.1254    0.0865    0.8249 N   0  0  0  0  0  0  0  0  0  0  0  0
   -0.8352   -0.4680   -0.0446 O   0  0  0  0  0  0  0  0  0  0  0  0
    2.0943    2.3750    1.3764 H   0  0  0  0  0  0  0  0  0  0  0  0
    3.1822    1.0541    0.8030 H   0  0  0  0  0  0  0  0  0  0  0  0
    4.1931    2.3012    2.7419 H   0  0  0  0  0  0  0  0  0  0  0  0
    4.8353    3.3585    4.8716 H   0  0  0  0  0  0  0  0  0  0  0  0
    3.5780    2.8780    6.9430 H   0  0  0  0  0  0  0  0  0  0  0  0
    0.9813    0.2210    4.7142 H   0  0  0  0  0  0  0  0  0  0  0  0
    0.2309   -0.3368    1.7441 H   0  0  0  0  0  0  0  0  0  0  0  0
   -0.5145   -0.1839   -0.9281 H   0  0  0  0  0  0  0  0  0  0  0  0
  1  2  2  0  0  0  0
  2  3  1  0  0  0  0
  2 14  1  0  0  0  0
  3  4  1  0  0  0  0
  3 16  1  0  0  0  0
  3 17  1  0  0  0  0
  4  5  1  0  0  0  0
  5  6  1  0  0  0  0
  5 13  2  0  0  0  0
  6  7  2  0  0  0  0
  6 18  1  0  0  0  0
  7  8  1  0  0  0  0
  7 19  1  0  0  0  0
  8  9  2  0  0  0  0
  8 20  1  0  0  0  0
  9 10  1  0  0  0  0
  9 13  1  0  0  0  0
 10 11  2  0  0  0  0
 10 12  1  0  0  0  0
 13 21  1  0  0  0  0
 14 15  1  0  0  0  0
 14 22  1  0  0  0  0
 15 23  1  0  0  0  0
M  CHG  2  10   1  12  -1
M  END
>  <Line_Number>
256


> <IC50>
94700

$$$$
