95562485.0
 OpenBabel09092522103D

 23 23  0  0  0  0  0  0  0  0999 V2000
    1.2097    2.3137    0.7071 O   0  0  0  0  0  0  0  0  0  0  0  0
    1.6857    1.4906   -0.0748 C   0  0  0  0  0  0  0  0  0  0  0  0
    1.6290    1.6618   -1.5872 C   0  0  0  0  0  0  0  0  0  0  0  0
    2.2405    0.5646   -2.2664 O   0  0  0  0  0  0  0  0  0  0  0  0
    2.5833    0.8016   -3.5700 C   0  0  0  0  0  0  0  0  0  0  0  0
    3.6058   -0.0059   -4.0762 C   0  0  0  0  0  0  0  0  0  0  0  0
    4.0730    0.1764   -5.3791 C   0  0  0  0  0  0  0  0  0  0  0  0
    3.4948    1.1648   -6.1847 C   0  0  0  0  0  0  0  0  0  0  0  0
    3.9996    1.3899   -7.5449 N   0  3  0  0  0  0  0  0  0  0  0  0
    4.9316    0.6753   -7.9383 O   0  0  0  0  0  0  0  0  0  0  0  0
    3.4661    2.2859   -8.2157 O   0  5  0  0  0  0  0  0  0  0  0  0
    2.4447    1.9525   -5.6971 C   0  0  0  0  0  0  0  0  0  0  0  0
    1.9853    1.7610   -4.3913 C   0  0  0  0  0  0  0  0  0  0  0  0
    2.3167    0.3554    0.3585 N   0  0  0  0  0  0  0  0  0  0  0  0
    2.3261    0.1126    1.7473 O   0  0  0  0  0  0  0  0  0  0  0  0
    2.1480    2.6014   -1.8134 H   0  0  0  0  0  0  0  0  0  0  0  0
    0.5719    1.7209   -1.8695 H   0  0  0  0  0  0  0  0  0  0  0  0
    4.0575   -0.7701   -3.4468 H   0  0  0  0  0  0  0  0  0  0  0  0
    4.8837   -0.4498   -5.7476 H   0  0  0  0  0  0  0  0  0  0  0  0
    1.9774    2.7171   -6.3156 H   0  0  0  0  0  0  0  0  0  0  0  0
    1.1586    2.3743   -4.0451 H   0  0  0  0  0  0  0  0  0  0  0  0
    2.5810   -0.4019   -0.2648 H   0  0  0  0  0  0  0  0  0  0  0  0
    1.8451    0.8922    2.1020 H   0  0  0  0  0  0  0  0  0  0  0  0
  1  2  2  0  0  0  0
  2  3  1  0  0  0  0
  2 14  1  0  0  0  0
  3  4  1  0  0  0  0
  3 16  1  0  0  0  0
  3 17  1  0  0  0  0
  4  5  1  0  0  0  0
  5  6  1  0  0  0  0
  5 13  2  0  0  0  0
  6  7  2  0  0  0  0
  6 18  1  0  0  0  0
  7  8  1  0  0  0  0
  7 19  1  0  0  0  0
  8  9  1  0  0  0  0
  8 12  2  0  0  0  0
  9 10  2  0  0  0  0
  9 11  1  0  0  0  0
 12 13  1  0  0  0  0
 12 20  1  0  0  0  0
 13 21  1  0  0  0  0
 14 15  1  0  0  0  0
 14 22  1  0  0  0  0
 15 23  1  0  0  0  0
M  CHG  2   9   1  11  -1
M  END
>  <Line_Number>
258


> <IC50>
62100

$$$$
