49844559.0
 OpenBabel09092522103D

 30 31  0  0  0  0  0  0  0  0999 V2000
    1.7486   -1.4177    0.0955 O   0  0  0  0  0  0  0  0  0  0  0  0
    0.5584   -0.7473    0.0656 C   0  0  0  0  0  0  0  0  0  0  0  0
   -0.5475   -1.3029   -0.5683 C   0  0  0  0  0  0  0  0  0  0  0  0
   -1.7611   -0.6056   -0.5903 C   0  0  0  0  0  0  0  0  0  0  0  0
   -1.8885    0.6451    0.0349 C   0  0  0  0  0  0  0  0  0  0  0  0
   -3.1761    1.4487    0.0062 C   0  0  0  0  0  0  0  0  0  0  0  0
   -4.4692    0.6211    0.0060 C   0  0  0  0  0  0  0  0  0  0  0  0
   -5.7172    1.4730   -0.0228 C   0  0  0  0  0  0  0  0  0  0  0  0
   -6.3513    1.8668    1.1631 C   0  0  0  0  0  0  0  0  0  0  0  0
   -7.5255    2.6268    1.1209 C   0  0  0  0  0  0  0  0  0  0  0  0
   -8.0733    3.0033   -0.1054 C   0  0  0  0  0  0  0  0  0  0  0  0
   -7.4412    2.6227   -1.2871 C   0  0  0  0  0  0  0  0  0  0  0  0
   -8.1175    3.0766   -2.8032 Cl  0  0  0  0  0  0  0  0  0  0  0  0
   -6.2691    1.8679   -1.2520 C   0  0  0  0  0  0  0  0  0  0  0  0
   -0.7526    1.2002    0.6505 C   0  0  0  0  0  0  0  0  0  0  0  0
    0.4581    0.5037    0.6687 C   0  0  0  0  0  0  0  0  0  0  0  0
    1.5580    1.0436    1.2750 O   0  0  0  0  0  0  0  0  0  0  0  0
    1.6450   -2.2671   -0.3593 H   0  0  0  0  0  0  0  0  0  0  0  0
   -0.4854   -2.2715   -1.0556 H   0  0  0  0  0  0  0  0  0  0  0  0
   -2.5975   -1.0622   -1.1120 H   0  0  0  0  0  0  0  0  0  0  0  0
   -3.1457    2.1001   -0.8766 H   0  0  0  0  0  0  0  0  0  0  0  0
   -3.1941    2.1104    0.8832 H   0  0  0  0  0  0  0  0  0  0  0  0
   -4.4961   -0.0381    0.8834 H   0  0  0  0  0  0  0  0  0  0  0  0
   -4.5024   -0.0435   -0.8656 H   0  0  0  0  0  0  0  0  0  0  0  0
   -5.9455    1.5746    2.1290 H   0  0  0  0  0  0  0  0  0  0  0  0
   -8.0179    2.9177    2.0450 H   0  0  0  0  0  0  0  0  0  0  0  0
   -8.9889    3.5858   -0.1337 H   0  0  0  0  0  0  0  0  0  0  0  0
   -5.7921    1.5741   -2.1830 H   0  0  0  0  0  0  0  0  0  0  0  0
   -0.8206    2.1810    1.1137 H   0  0  0  0  0  0  0  0  0  0  0  0
    1.3273    1.9145    1.6313 H   0  0  0  0  0  0  0  0  0  0  0  0
  1  2  1  0  0  0  0
  1 18  1  0  0  0  0
  2  3  1  0  0  0  0
  2 16  2  0  0  0  0
  3  4  2  0  0  0  0
  3 19  1  0  0  0  0
  4  5  1  0  0  0  0
  4 20  1  0  0  0  0
  5  6  1  0  0  0  0
  5 15  2  0  0  0  0
  6  7  1  0  0  0  0
  6 21  1  0  0  0  0
  6 22  1  0  0  0  0
  7  8  1  0  0  0  0
  7 23  1  0  0  0  0
  7 24  1  0  0  0  0
  8  9  1  0  0  0  0
  8 14  2  0  0  0  0
  9 10  2  0  0  0  0
  9 25  1  0  0  0  0
 10 11  1  0  0  0  0
 10 26  1  0  0  0  0
 11 12  2  0  0  0  0
 11 27  1  0  0  0  0
 12 13  1  0  0  0  0
 12 14  1  0  0  0  0
 14 28  1  0  0  0  0
 15 16  1  0  0  0  0
 15 29  1  0  0  0  0
 16 17  1  0  0  0  0
 17 30  1  0  0  0  0
M  END
>  <Line_Number>
25


> <IC50>
55200

$$$$
