239786.0
 OpenBabel09092522103D

 21 21  0  0  0  0  0  0  0  0999 V2000
    0.5562   -2.1113    1.7755 O   0  0  0  0  0  0  0  0  0  0  0  0
    0.7491   -1.8291    0.5921 C   0  0  0  0  0  0  0  0  0  0  0  0
    1.9150   -2.3951   -0.2092 C   0  0  0  0  0  0  0  0  0  0  0  0
    1.9655   -1.8314   -1.5189 O   0  0  0  0  0  0  0  0  0  0  0  0
    2.5354   -2.6229   -2.4829 C   0  0  0  0  0  0  0  0  0  0  0  0
    3.5885   -3.5040   -2.2251 C   0  0  0  0  0  0  0  0  0  0  0  0
    4.1092   -4.2944   -3.2540 C   0  0  0  0  0  0  0  0  0  0  0  0
    3.5881   -4.1910   -4.5430 C   0  0  0  0  0  0  0  0  0  0  0  0
    4.2208   -5.1819   -5.7985 Cl  0  0  0  0  0  0  0  0  0  0  0  0
    2.5637   -3.2905   -4.8222 C   0  0  0  0  0  0  0  0  0  0  0  0
    2.0449   -2.5027   -3.7934 C   0  0  0  0  0  0  0  0  0  0  0  0
    0.7676   -1.3999   -4.1698 Cl  0  0  0  0  0  0  0  0  0  0  0  0
   -0.0925   -1.0031   -0.1047 N   0  0  0  0  0  0  0  0  0  0  0  0
   -1.1528   -0.4104    0.6122 O   0  0  0  0  0  0  0  0  0  0  0  0
    1.7716   -3.4822   -0.2401 H   0  0  0  0  0  0  0  0  0  0  0  0
    2.8385   -2.1425    0.3225 H   0  0  0  0  0  0  0  0  0  0  0  0
    4.0305   -3.5888   -1.2362 H   0  0  0  0  0  0  0  0  0  0  0  0
    4.9216   -4.9867   -3.0441 H   0  0  0  0  0  0  0  0  0  0  0  0
    2.1683   -3.2060   -5.8305 H   0  0  0  0  0  0  0  0  0  0  0  0
    0.1234   -0.6429   -1.0314 H   0  0  0  0  0  0  0  0  0  0  0  0
   -1.0391   -0.7908    1.5104 H   0  0  0  0  0  0  0  0  0  0  0  0
  1  2  2  0  0  0  0
  2  3  1  0  0  0  0
  2 13  1  0  0  0  0
  3  4  1  0  0  0  0
  3 15  1  0  0  0  0
  3 16  1  0  0  0  0
  4  5  1  0  0  0  0
  5  6  1  0  0  0  0
  5 11  2  0  0  0  0
  6  7  2  0  0  0  0
  6 17  1  0  0  0  0
  7  8  1  0  0  0  0
  7 18  1  0  0  0  0
  8  9  1  0  0  0  0
  8 10  2  0  0  0  0
 10 11  1  0  0  0  0
 10 19  1  0  0  0  0
 11 12  1  0  0  0  0
 13 14  1  0  0  0  0
 13 20  1  0  0  0  0
 14 21  1  0  0  0  0
M  END
>  <Line_Number>
260


> <IC50>
830

$$$$
