3598816.0
 OpenBabel09092522103D

 21 21  0  0  0  0  0  0  0  0999 V2000
    1.1243    1.6298   -1.0285 O   0  0  0  0  0  0  0  0  0  0  0  0
    1.6285    0.5138   -0.9178 C   0  0  0  0  0  0  0  0  0  0  0  0
    1.6243   -0.5130   -2.0446 C   0  0  0  0  0  0  0  0  0  0  0  0
    2.2045   -1.7504   -1.6283 O   0  0  0  0  0  0  0  0  0  0  0  0
    2.5956   -2.5827   -2.6451 C   0  0  0  0  0  0  0  0  0  0  0  0
    3.6010   -3.4946   -2.3187 C   0  0  0  0  0  0  0  0  0  0  0  0
    4.1126   -4.3576   -3.2960 C   0  0  0  0  0  0  0  0  0  0  0  0
    3.6053   -4.3062   -4.5909 C   0  0  0  0  0  0  0  0  0  0  0  0
    4.3231   -5.4373   -5.9283 Br  0  0  0  0  0  0  0  0  0  0  0  0
    2.5779   -3.4265   -4.9132 C   0  0  0  0  0  0  0  0  0  0  0  0
    2.0654   -2.5683   -3.9344 C   0  0  0  0  0  0  0  0  0  0  0  0
    2.2435    0.0961    0.2327 N   0  0  0  0  0  0  0  0  0  0  0  0
    2.2241    0.9573    1.3474 O   0  0  0  0  0  0  0  0  0  0  0  0
    2.1919   -0.0724   -2.8736 H   0  0  0  0  0  0  0  0  0  0  0  0
    0.5796   -0.6797   -2.3294 H   0  0  0  0  0  0  0  0  0  0  0  0
    4.0043   -3.5317   -1.3102 H   0  0  0  0  0  0  0  0  0  0  0  0
    4.9071   -5.0530   -3.0339 H   0  0  0  0  0  0  0  0  0  0  0  0
    2.1705   -3.3898   -5.9211 H   0  0  0  0  0  0  0  0  0  0  0  0
    1.2537   -1.9050   -4.2111 H   0  0  0  0  0  0  0  0  0  0  0  0
    2.5919   -0.8500    0.3583 H   0  0  0  0  0  0  0  0  0  0  0  0
    1.5929    1.6546    1.0681 H   0  0  0  0  0  0  0  0  0  0  0  0
  1  2  2  0  0  0  0
  2  3  1  0  0  0  0
  2 12  1  0  0  0  0
  3  4  1  0  0  0  0
  3 14  1  0  0  0  0
  3 15  1  0  0  0  0
  4  5  1  0  0  0  0
  5  6  1  0  0  0  0
  5 11  2  0  0  0  0
  6  7  2  0  0  0  0
  6 16  1  0  0  0  0
  7  8  1  0  0  0  0
  7 17  1  0  0  0  0
  8  9  1  0  0  0  0
  8 10  2  0  0  0  0
 10 11  1  0  0  0  0
 10 18  1  0  0  0  0
 11 19  1  0  0  0  0
 12 13  1  0  0  0  0
 12 20  1  0  0  0  0
 13 21  1  0  0  0  0
M  END
>  <Line_Number>
262


> <IC50>
5350

$$$$
