145953677.0
 OpenBabel09092522103D

 27 27  0  0  0  0  0  0  0  0999 V2000
    1.0184   -0.0612   -0.1186 O   0  0  0  0  0  0  0  0  0  0  0  0
    1.8781    0.3939    0.6315 C   0  0  0  0  0  0  0  0  0  0  0  0
    2.5671   -0.3931    1.7170 C   0  0  0  0  0  0  0  0  0  0  0  0
    2.0278   -1.8164    1.7938 C   0  0  0  0  0  0  0  0  0  0  0  0
    2.7084   -2.5151    2.8879 N   0  0  0  0  0  0  0  0  0  0  0  0
    2.0599   -3.5907    3.5054 C   0  0  0  0  0  0  0  0  0  0  0  0
    1.0931   -4.3880    2.8799 C   0  0  0  0  0  0  0  0  0  0  0  0
    0.4953   -5.4576    3.5580 C   0  0  0  0  0  0  0  0  0  0  0  0
    0.8805   -5.7455    4.8721 C   0  0  0  0  0  0  0  0  0  0  0  0
    0.2358   -6.8428    5.5994 N   0  3  0  0  0  0  0  0  0  0  0  0
   -0.6394   -7.4914    5.0085 O   0  0  0  0  0  0  0  0  0  0  0  0
    0.5974   -7.0572    6.7657 O   0  5  0  0  0  0  0  0  0  0  0  0
    1.8762   -4.9903    5.4975 C   0  0  0  0  0  0  0  0  0  0  0  0
    2.4683   -3.9315    4.8034 C   0  0  0  0  0  0  0  0  0  0  0  0
    2.3151    1.6924    0.5378 N   0  0  0  0  0  0  0  0  0  0  0  0
    1.6722    2.5071   -0.4190 O   0  0  0  0  0  0  0  0  0  0  0  0
    2.4062    0.1196    2.6736 H   0  0  0  0  0  0  0  0  0  0  0  0
    3.6447   -0.4021    1.5164 H   0  0  0  0  0  0  0  0  0  0  0  0
    2.1969   -2.3468    0.8488 H   0  0  0  0  0  0  0  0  0  0  0  0
    0.9457   -1.7734    1.9713 H   0  0  0  0  0  0  0  0  0  0  0  0
    3.6544   -2.7970    2.6273 H   0  0  0  0  0  0  0  0  0  0  0  0
    0.7870   -4.1926    1.8553 H   0  0  0  0  0  0  0  0  0  0  0  0
   -0.2667   -6.0450    3.0488 H   0  0  0  0  0  0  0  0  0  0  0  0
    2.1959   -5.2007    6.5159 H   0  0  0  0  0  0  0  0  0  0  0  0
    3.2359   -3.3379    5.2967 H   0  0  0  0  0  0  0  0  0  0  0  0
    2.9086    2.1567    1.2167 H   0  0  0  0  0  0  0  0  0  0  0  0
    1.0299    1.8873   -0.8295 H   0  0  0  0  0  0  0  0  0  0  0  0
  1  2  2  0  0  0  0
  2  3  1  0  0  0  0
  2 15  1  0  0  0  0
  3  4  1  0  0  0  0
  3 17  1  0  0  0  0
  3 18  1  0  0  0  0
  4  5  1  0  0  0  0
  4 19  1  0  0  0  0
  4 20  1  0  0  0  0
  5  6  1  0  0  0  0
  5 21  1  0  0  0  0
  6  7  1  0  0  0  0
  6 14  2  0  0  0  0
  7  8  2  0  0  0  0
  7 22  1  0  0  0  0
  8  9  1  0  0  0  0
  8 23  1  0  0  0  0
  9 10  1  0  0  0  0
  9 13  2  0  0  0  0
 10 11  2  0  0  0  0
 10 12  1  0  0  0  0
 13 14  1  0  0  0  0
 13 24  1  0  0  0  0
 14 25  1  0  0  0  0
 15 16  1  0  0  0  0
 15 26  1  0  0  0  0
 16 27  1  0  0  0  0
M  CHG  2  10   1  12  -1
M  END
>  <Line_Number>
263


> <IC50>
1230

$$$$
