145972714.0
 OpenBabel09092522103D

 25 25  0  0  0  0  0  0  0  0999 V2000
    0.7290    0.3615    0.3556 O   0  0  0  0  0  0  0  0  0  0  0  0
    1.0951    0.5226    1.5186 C   0  0  0  0  0  0  0  0  0  0  0  0
    1.8404   -0.5079    2.3338 C   0  0  0  0  0  0  0  0  0  0  0  0
    2.0940   -1.7728    1.5233 C   0  0  0  0  0  0  0  0  0  0  0  0
    2.7624   -2.7932    2.3335 N   0  0  0  0  0  0  0  0  0  0  0  0
    2.0537   -3.7023    3.1320 C   0  0  0  0  0  0  0  0  0  0  0  0
    0.7899   -4.1795    2.7514 C   0  0  0  0  0  0  0  0  0  0  0  0
    0.1141   -5.1468    3.4994 C   0  0  0  0  0  0  0  0  0  0  0  0
    0.6979   -5.6747    4.6449 C   0  0  0  0  0  0  0  0  0  0  0  0
    1.9601   -5.2347    5.0468 C   0  0  0  0  0  0  0  0  0  0  0  0
    2.6241   -5.9450    6.4781 Cl  0  0  0  0  0  0  0  0  0  0  0  0
    2.6399   -4.2595    4.2969 C   0  0  0  0  0  0  0  0  0  0  0  0
    4.2066   -3.6885    4.7983 Cl  0  0  0  0  0  0  0  0  0  0  0  0
    0.8509    1.6860    2.2033 N   0  0  0  0  0  0  0  0  0  0  0  0
    0.1587    2.7056    1.5163 O   0  0  0  0  0  0  0  0  0  0  0  0
    1.2498   -0.7335    3.2294 H   0  0  0  0  0  0  0  0  0  0  0  0
    2.7935   -0.0725    2.6572 H   0  0  0  0  0  0  0  0  0  0  0  0
    2.7538   -1.5353    0.6801 H   0  0  0  0  0  0  0  0  0  0  0  0
    1.1677   -2.1374    1.0708 H   0  0  0  0  0  0  0  0  0  0  0  0
    3.6372   -2.4900    2.7621 H   0  0  0  0  0  0  0  0  0  0  0  0
    0.3139   -3.8384    1.8373 H   0  0  0  0  0  0  0  0  0  0  0  0
   -0.8606   -5.4994    3.1698 H   0  0  0  0  0  0  0  0  0  0  0  0
    0.1696   -6.4372    5.2120 H   0  0  0  0  0  0  0  0  0  0  0  0
    1.1332    1.8779    3.1580 H   0  0  0  0  0  0  0  0  0  0  0  0
    0.0064    2.3037    0.6337 H   0  0  0  0  0  0  0  0  0  0  0  0
  1  2  2  0  0  0  0
  2  3  1  0  0  0  0
  2 14  1  0  0  0  0
  3  4  1  0  0  0  0
  3 16  1  0  0  0  0
  3 17  1  0  0  0  0
  4  5  1  0  0  0  0
  4 18  1  0  0  0  0
  4 19  1  0  0  0  0
  5  6  1  0  0  0  0
  5 20  1  0  0  0  0
  6  7  1  0  0  0  0
  6 12  2  0  0  0  0
  7  8  2  0  0  0  0
  7 21  1  0  0  0  0
  8  9  1  0  0  0  0
  8 22  1  0  0  0  0
  9 10  2  0  0  0  0
  9 23  1  0  0  0  0
 10 11  1  0  0  0  0
 10 12  1  0  0  0  0
 12 13  1  0  0  0  0
 14 15  1  0  0  0  0
 14 24  1  0  0  0  0
 15 25  1  0  0  0  0
M  END
>  <Line_Number>
264


> <IC50>
3830

$$$$
