145960261.0
 OpenBabel09092522103D

 30 30  0  0  0  0  0  0  0  0999 V2000
    1.1457   -0.3257    0.1285 C   0  0  0  0  0  0  0  0  0  0  0  0
    2.4094    0.2772   -0.1136 O   0  0  0  0  0  0  0  0  0  0  0  0
    3.0415    0.8546    0.9533 C   0  0  0  0  0  0  0  0  0  0  0  0
    2.5452    0.9534    2.2562 C   0  0  0  0  0  0  0  0  0  0  0  0
    3.3125    1.5336    3.2791 C   0  0  0  0  0  0  0  0  0  0  0  0
    2.7260    1.6518    4.5622 N   0  0  0  0  0  0  0  0  0  0  0  0
    3.6680    1.7339    5.6985 C   0  0  0  0  0  0  0  0  0  0  0  0
    2.9194    1.8554    7.0201 C   0  0  0  0  0  0  0  0  0  0  0  0
    3.1144    2.7637    7.8278 O   0  0  0  0  0  0  0  0  0  0  0  0
    2.0145    0.8485    7.2563 N   0  0  0  0  0  0  0  0  0  0  0  0
    1.2168    1.0230    8.4161 O   0  0  0  0  0  0  0  0  0  0  0  0
    4.5535    2.0968    2.9437 C   0  0  0  0  0  0  0  0  0  0  0  0
    5.0606    2.0069    1.6460 C   0  0  0  0  0  0  0  0  0  0  0  0
    6.2698    2.4893    1.2241 O   0  0  0  0  0  0  0  0  0  0  0  0
    7.0906    3.1253    2.1968 C   0  0  0  0  0  0  0  0  0  0  0  0
    4.3006    1.3806    0.6607 C   0  0  0  0  0  0  0  0  0  0  0  0
    0.8336   -0.8258   -0.7937 H   0  0  0  0  0  0  0  0  0  0  0  0
    0.3946    0.4328    0.3705 H   0  0  0  0  0  0  0  0  0  0  0  0
    1.2072   -1.0881    0.9118 H   0  0  0  0  0  0  0  0  0  0  0  0
    1.5644    0.5653    2.5112 H   0  0  0  0  0  0  0  0  0  0  0  0
    2.1281    2.4832    4.5451 H   0  0  0  0  0  0  0  0  0  0  0  0
    4.3097    2.6167    5.6249 H   0  0  0  0  0  0  0  0  0  0  0  0
    4.2915    0.8333    5.7441 H   0  0  0  0  0  0  0  0  0  0  0  0
    1.5919    0.3570    6.4734 H   0  0  0  0  0  0  0  0  0  0  0  0
    1.5886    1.8446    8.8094 H   0  0  0  0  0  0  0  0  0  0  0  0
    5.1248    2.6215    3.6966 H   0  0  0  0  0  0  0  0  0  0  0  0
    8.0557    3.3444    1.7306 H   0  0  0  0  0  0  0  0  0  0  0  0
    7.2826    2.4711    3.0542 H   0  0  0  0  0  0  0  0  0  0  0  0
    6.6470    4.0743    2.5158 H   0  0  0  0  0  0  0  0  0  0  0  0
    4.6908    1.3077   -0.3519 H   0  0  0  0  0  0  0  0  0  0  0  0
  1  2  1  0  0  0  0
  1 17  1  0  0  0  0
  1 18  1  0  0  0  0
  1 19  1  0  0  0  0
  2  3  1  0  0  0  0
  3  4  1  0  0  0  0
  3 16  2  0  0  0  0
  4  5  2  0  0  0  0
  4 20  1  0  0  0  0
  5  6  1  0  0  0  0
  5 12  1  0  0  0  0
  6  7  1  0  0  0  0
  6 21  1  0  0  0  0
  7  8  1  0  0  0  0
  7 22  1  0  0  0  0
  7 23  1  0  0  0  0
  8  9  2  0  0  0  0
  8 10  1  0  0  0  0
 10 11  1  0  0  0  0
 10 24  1  0  0  0  0
 11 25  1  0  0  0  0
 12 13  2  0  0  0  0
 12 26  1  0  0  0  0
 13 14  1  0  0  0  0
 13 16  1  0  0  0  0
 14 15  1  0  0  0  0
 15 27  1  0  0  0  0
 15 28  1  0  0  0  0
 15 29  1  0  0  0  0
 16 30  1  0  0  0  0
M  END
>  <Line_Number>
266


> <IC50>
2280

$$$$
