145974309.0
 OpenBabel09092522103D

 28 28  0  0  0  0  0  0  0  0999 V2000
    2.5180    1.0997    0.0034 C   0  0  0  0  0  0  0  0  0  0  0  0
    1.2200    0.3423   -0.0155 C   0  0  0  0  0  0  0  0  0  0  0  0
   -0.0015    1.0208   -0.0160 C   0  0  0  0  0  0  0  0  0  0  0  0
   -1.2017    0.3042   -0.0076 C   0  0  0  0  0  0  0  0  0  0  0  0
   -2.5236    1.0155   -0.0110 C   0  0  0  0  0  0  0  0  0  0  0  0
   -1.1605   -1.0987    0.0184 C   0  0  0  0  0  0  0  0  0  0  0  0
    0.0515   -1.8024    0.0331 C   0  0  0  0  0  0  0  0  0  0  0  0
    0.0335   -3.1856    0.1110 N   0  0  0  0  0  0  0  0  0  0  0  0
    1.0613   -4.0198   -0.5033 C   0  0  0  0  0  0  0  0  0  0  0  0
    0.4882   -5.3836   -0.9040 C   0  0  0  0  0  0  0  0  0  0  0  0
   -0.6828   -5.7277   -0.7286 O   0  0  0  0  0  0  0  0  0  0  0  0
    1.4099   -6.2208   -1.4934 N   0  0  0  0  0  0  0  0  0  0  0  0
    0.9551   -7.4948   -1.9016 O   0  0  0  0  0  0  0  0  0  0  0  0
    1.2360   -1.0581   -0.0005 C   0  0  0  0  0  0  0  0  0  0  0  0
    2.3574    2.1832   -0.0154 H   0  0  0  0  0  0  0  0  0  0  0  0
    3.1195    0.8388   -0.8755 H   0  0  0  0  0  0  0  0  0  0  0  0
    3.0829    0.8592    0.9095 H   0  0  0  0  0  0  0  0  0  0  0  0
   -0.0223    2.1090   -0.0166 H   0  0  0  0  0  0  0  0  0  0  0  0
   -2.3957    2.1030    0.0049 H   0  0  0  0  0  0  0  0  0  0  0  0
   -3.1039    0.7350    0.8740 H   0  0  0  0  0  0  0  0  0  0  0  0
   -3.0908    0.7568   -0.9109 H   0  0  0  0  0  0  0  0  0  0  0  0
   -2.0976   -1.6516    0.0207 H   0  0  0  0  0  0  0  0  0  0  0  0
   -0.8709   -3.6402    0.2285 H   0  0  0  0  0  0  0  0  0  0  0  0
    1.8672   -4.1906    0.2184 H   0  0  0  0  0  0  0  0  0  0  0  0
    1.4721   -3.5565   -1.4083 H   0  0  0  0  0  0  0  0  0  0  0  0
    2.3839   -5.9984   -1.6738 H   0  0  0  0  0  0  0  0  0  0  0  0
    0.0072   -7.4729   -1.6442 H   0  0  0  0  0  0  0  0  0  0  0  0
    2.1956   -1.5671    0.0269 H   0  0  0  0  0  0  0  0  0  0  0  0
  1  2  1  0  0  0  0
  1 15  1  0  0  0  0
  1 16  1  0  0  0  0
  1 17  1  0  0  0  0
  2  3  1  0  0  0  0
  2 14  2  0  0  0  0
  3  4  2  0  0  0  0
  3 18  1  0  0  0  0
  4  5  1  0  0  0  0
  4  6  1  0  0  0  0
  5 19  1  0  0  0  0
  5 20  1  0  0  0  0
  5 21  1  0  0  0  0
  6  7  2  0  0  0  0
  6 22  1  0  0  0  0
  7  8  1  0  0  0  0
  7 14  1  0  0  0  0
  8  9  1  0  0  0  0
  8 23  1  0  0  0  0
  9 10  1  0  0  0  0
  9 24  1  0  0  0  0
  9 25  1  0  0  0  0
 10 11  2  0  0  0  0
 10 12  1  0  0  0  0
 12 13  1  0  0  0  0
 12 26  1  0  0  0  0
 13 27  1  0  0  0  0
 14 28  1  0  0  0  0
M  END
>  <Line_Number>
269


> <IC50>
2120

$$$$
