46195675.0
 OpenBabel09092522103D

 31 32  0  0  0  0  0  0  0  0999 V2000
    2.2094    1.1573    0.4812 O   0  0  0  0  0  0  0  0  0  0  0  0
    1.0937    0.3803    0.3563 C   0  0  0  0  0  0  0  0  0  0  0  0
    0.4258   -0.0865    1.4824 C   0  0  0  0  0  0  0  0  0  0  0  0
   -0.7104   -0.8902    1.3320 C   0  0  0  0  0  0  0  0  0  0  0  0
   -1.1967   -1.2526    0.0594 C   0  0  0  0  0  0  0  0  0  0  0  0
   -2.4213   -2.1388   -0.0084 C   0  0  0  0  0  0  0  0  0  0  0  0
   -3.7359   -1.3446    0.0137 C   0  0  0  0  0  0  0  0  0  0  0  0
   -5.0236   -2.1496    0.0374 C   0  0  0  0  0  0  0  0  0  0  0  0
   -5.0692   -3.5519    0.0690 C   0  0  0  0  0  0  0  0  0  0  0  0
   -6.2950   -4.2266    0.0972 C   0  0  0  0  0  0  0  0  0  0  0  0
   -7.4805   -3.5056    0.0950 C   0  0  0  0  0  0  0  0  0  0  0  0
   -8.6525   -4.1547    0.1217 F   0  0  0  0  0  0  0  0  0  0  0  0
   -7.4659   -2.1176    0.0675 C   0  0  0  0  0  0  0  0  0  0  0  0
   -6.2424   -1.4439    0.0396 C   0  0  0  0  0  0  0  0  0  0  0  0
   -0.5150   -0.7597   -1.0602 C   0  0  0  0  0  0  0  0  0  0  0  0
   -0.8835   -1.0236   -2.3545 O   0  0  0  0  0  0  0  0  0  0  0  0
    0.6210    0.0484   -0.9082 C   0  0  0  0  0  0  0  0  0  0  0  0
    1.2667    0.5021   -2.0292 O   0  0  0  0  0  0  0  0  0  0  0  0
    2.4074    1.2826    1.4219 H   0  0  0  0  0  0  0  0  0  0  0  0
    0.7725    0.1595    2.4813 H   0  0  0  0  0  0  0  0  0  0  0  0
   -1.2176   -1.2444    2.2298 H   0  0  0  0  0  0  0  0  0  0  0  0
   -2.3892   -2.8275    0.8463 H   0  0  0  0  0  0  0  0  0  0  0  0
   -2.3732   -2.7836   -0.8931 H   0  0  0  0  0  0  0  0  0  0  0  0
   -3.7659   -0.6892   -0.8672 H   0  0  0  0  0  0  0  0  0  0  0  0
   -3.7417   -0.6924    0.8972 H   0  0  0  0  0  0  0  0  0  0  0  0
   -4.1625   -4.1508    0.0778 H   0  0  0  0  0  0  0  0  0  0  0  0
   -6.3299   -5.3110    0.1227 H   0  0  0  0  0  0  0  0  0  0  0  0
   -8.4028   -1.5694    0.0688 H   0  0  0  0  0  0  0  0  0  0  0  0
   -6.2438   -0.3554    0.0227 H   0  0  0  0  0  0  0  0  0  0  0  0
   -1.6212   -1.6522   -2.3615 H   0  0  0  0  0  0  0  0  0  0  0  0
    0.7516    0.1386   -2.7740 H   0  0  0  0  0  0  0  0  0  0  0  0
  1  2  1  0  0  0  0
  1 19  1  0  0  0  0
  2  3  1  0  0  0  0
  2 17  2  0  0  0  0
  3  4  2  0  0  0  0
  3 20  1  0  0  0  0
  4  5  1  0  0  0  0
  4 21  1  0  0  0  0
  5  6  1  0  0  0  0
  5 15  2  0  0  0  0
  6  7  1  0  0  0  0
  6 22  1  0  0  0  0
  6 23  1  0  0  0  0
  7  8  1  0  0  0  0
  7 24  1  0  0  0  0
  7 25  1  0  0  0  0
  8  9  1  0  0  0  0
  8 14  2  0  0  0  0
  9 10  2  0  0  0  0
  9 26  1  0  0  0  0
 10 11  1  0  0  0  0
 10 27  1  0  0  0  0
 11 12  1  0  0  0  0
 11 13  2  0  0  0  0
 13 14  1  0  0  0  0
 13 28  1  0  0  0  0
 14 29  1  0  0  0  0
 15 16  1  0  0  0  0
 15 17  1  0  0  0  0
 16 30  1  0  0  0  0
 17 18  1  0  0  0  0
 18 31  1  0  0  0  0
M  END
>  <Line_Number>
26


> <IC50>
43000

$$$$
