145974348.0
 OpenBabel09092522103D

 22 22  0  0  0  0  0  0  0  0999 V2000
    2.5241   -0.4577   -1.0638 O   0  0  0  0  0  0  0  0  0  0  0  0
    2.1152    0.1171   -0.0584 C   0  0  0  0  0  0  0  0  0  0  0  0
    2.8737    0.1342    1.2791 C   0  0  0  0  0  0  0  0  0  0  0  0
    1.9385    0.2898    2.4185 N   0  0  0  0  0  0  0  0  0  0  0  0
    2.4826    0.2370    3.7147 C   0  0  0  0  0  0  0  0  0  0  0  0
    3.7260    0.7909    4.0422 C   0  0  0  0  0  0  0  0  0  0  0  0
    4.1800    0.8073    5.3663 C   0  0  0  0  0  0  0  0  0  0  0  0
    5.7131    1.5030    5.7285 Cl  0  0  0  0  0  0  0  0  0  0  0  0
    3.4041    0.2852    6.3939 C   0  0  0  0  0  0  0  0  0  0  0  0
    2.1603   -0.2506    6.0838 C   0  0  0  0  0  0  0  0  0  0  0  0
    1.1802   -0.9023    7.3401 Cl  0  0  0  0  0  0  0  0  0  0  0  0
    1.6939   -0.2599    4.7645 C   0  0  0  0  0  0  0  0  0  0  0  0
    0.9539    0.8455   -0.0343 N   0  0  0  0  0  0  0  0  0  0  0  0
    0.1944    0.9292   -1.2158 O   0  0  0  0  0  0  0  0  0  0  0  0
    3.5793    0.9708    1.2305 H   0  0  0  0  0  0  0  0  0  0  0  0
    3.4192   -0.8111    1.3727 H   0  0  0  0  0  0  0  0  0  0  0  0
    1.1477   -0.3506    2.3310 H   0  0  0  0  0  0  0  0  0  0  0  0
    4.3548    1.2380    3.2787 H   0  0  0  0  0  0  0  0  0  0  0  0
    3.7589    0.3057    7.4204 H   0  0  0  0  0  0  0  0  0  0  0  0
    0.7070   -0.6697    4.5608 H   0  0  0  0  0  0  0  0  0  0  0  0
    0.6609    1.3871    0.7754 H   0  0  0  0  0  0  0  0  0  0  0  0
    0.7123    0.3817   -1.8444 H   0  0  0  0  0  0  0  0  0  0  0  0
  1  2  2  0  0  0  0
  2  3  1  0  0  0  0
  2 13  1  0  0  0  0
  3  4  1  0  0  0  0
  3 15  1  0  0  0  0
  3 16  1  0  0  0  0
  4  5  1  0  0  0  0
  4 17  1  0  0  0  0
  5  6  1  0  0  0  0
  5 12  2  0  0  0  0
  6  7  2  0  0  0  0
  6 18  1  0  0  0  0
  7  8  1  0  0  0  0
  7  9  1  0  0  0  0
  9 10  2  0  0  0  0
  9 19  1  0  0  0  0
 10 11  1  0  0  0  0
 10 12  1  0  0  0  0
 12 20  1  0  0  0  0
 13 14  1  0  0  0  0
 13 21  1  0  0  0  0
 14 22  1  0  0  0  0
M  END
>  <Line_Number>
270


> <IC50>
8515

$$$$
