145973840.0
 OpenBabel09092522103D

 27 27  0  0  0  0  0  0  0  0999 V2000
    1.1468   -0.2005   -0.2180 O   0  0  0  0  0  0  0  0  0  0  0  0
    2.3111    0.1221    0.0085 C   0  0  0  0  0  0  0  0  0  0  0  0
    3.0323   -0.1419    1.3186 C   0  0  0  0  0  0  0  0  0  0  0  0
    2.1231   -0.8578    2.3177 C   0  0  0  0  0  0  0  0  0  0  0  0
    2.8154   -1.0907    3.5919 N   0  0  0  0  0  0  0  0  0  0  0  0
    2.1856   -1.8075    4.6190 C   0  0  0  0  0  0  0  0  0  0  0  0
    0.8439   -2.2140    4.5806 C   0  0  0  0  0  0  0  0  0  0  0  0
    0.2421   -2.8739    5.6618 C   0  0  0  0  0  0  0  0  0  0  0  0
    0.9711   -3.1353    6.8173 C   0  0  0  0  0  0  0  0  0  0  0  0
    2.3063   -2.7283    6.8790 C   0  0  0  0  0  0  0  0  0  0  0  0
    3.1061   -3.0568    8.0649 N   0  3  0  0  0  0  0  0  0  0  0  0
    2.5674   -3.7296    8.9567 O   0  0  0  0  0  0  0  0  0  0  0  0
    4.2817   -2.6652    8.0975 O   0  5  0  0  0  0  0  0  0  0  0  0
    2.9009   -2.0447    5.8035 C   0  0  0  0  0  0  0  0  0  0  0  0
    3.0842    0.7578   -0.9306 N   0  0  0  0  0  0  0  0  0  0  0  0
    2.5010    1.0558   -2.1809 O   0  0  0  0  0  0  0  0  0  0  0  0
    3.3756    0.8142    1.7322 H   0  0  0  0  0  0  0  0  0  0  0  0
    3.9180   -0.7541    1.1091 H   0  0  0  0  0  0  0  0  0  0  0  0
    1.7925   -1.8100    1.8865 H   0  0  0  0  0  0  0  0  0  0  0  0
    1.2386   -0.2362    2.5019 H   0  0  0  0  0  0  0  0  0  0  0  0
    3.7957   -1.3521    3.5014 H   0  0  0  0  0  0  0  0  0  0  0  0
    0.2349   -2.0467    3.6960 H   0  0  0  0  0  0  0  0  0  0  0  0
   -0.7966   -3.1901    5.5918 H   0  0  0  0  0  0  0  0  0  0  0  0
    0.4926   -3.6527    7.6463 H   0  0  0  0  0  0  0  0  0  0  0  0
    3.9275   -1.6926    5.8832 H   0  0  0  0  0  0  0  0  0  0  0  0
    4.0336    1.0887   -0.7784 H   0  0  0  0  0  0  0  0  0  0  0  0
    1.5909    0.6910   -2.0920 H   0  0  0  0  0  0  0  0  0  0  0  0
  1  2  2  0  0  0  0
  2  3  1  0  0  0  0
  2 15  1  0  0  0  0
  3  4  1  0  0  0  0
  3 17  1  0  0  0  0
  3 18  1  0  0  0  0
  4  5  1  0  0  0  0
  4 19  1  0  0  0  0
  4 20  1  0  0  0  0
  5  6  1  0  0  0  0
  5 21  1  0  0  0  0
  6  7  1  0  0  0  0
  6 14  2  0  0  0  0
  7  8  2  0  0  0  0
  7 22  1  0  0  0  0
  8  9  1  0  0  0  0
  8 23  1  0  0  0  0
  9 10  2  0  0  0  0
  9 24  1  0  0  0  0
 10 11  1  0  0  0  0
 10 14  1  0  0  0  0
 11 12  2  0  0  0  0
 11 13  1  0  0  0  0
 14 25  1  0  0  0  0
 15 16  1  0  0  0  0
 15 26  1  0  0  0  0
 16 27  1  0  0  0  0
M  CHG  2  11   1  13  -1
M  END
>  <Line_Number>
272


> <IC50>
5100

$$$$
