145958473.0
 OpenBabel09092522103D

 27 27  0  0  0  0  0  0  0  0999 V2000
    1.0851   -0.2556   -0.0834 O   0  0  0  0  0  0  0  0  0  0  0  0
    2.3085   -0.1675    0.0016 C   0  0  0  0  0  0  0  0  0  0  0  0
    3.0581    0.1421    1.2756 C   0  0  0  0  0  0  0  0  0  0  0  0
    2.0935    0.4822    2.4056 C   0  0  0  0  0  0  0  0  0  0  0  0
    2.8439    0.7437    3.6379 N   0  0  0  0  0  0  0  0  0  0  0  0
    2.1565    1.0794    4.8206 C   0  0  0  0  0  0  0  0  0  0  0  0
    0.8643    0.5771    5.0615 C   0  0  0  0  0  0  0  0  0  0  0  0
    0.1933    0.7866    6.2741 C   0  0  0  0  0  0  0  0  0  0  0  0
    0.8072    1.4879    7.3013 C   0  0  0  0  0  0  0  0  0  0  0  0
    2.0925    1.9874    7.1167 C   0  0  0  0  0  0  0  0  0  0  0  0
    2.7656    1.7847    5.8928 C   0  0  0  0  0  0  0  0  0  0  0  0
    4.1102    2.3770    5.7630 N   0  3  0  0  0  0  0  0  0  0  0  0
    4.6365    2.4114    4.6389 O   0  0  0  0  0  0  0  0  0  0  0  0
    4.6379    2.8428    6.7847 O   0  5  0  0  0  0  0  0  0  0  0  0
    3.1310   -0.3625   -1.0815 N   0  0  0  0  0  0  0  0  0  0  0  0
    2.5025   -0.7741   -2.2779 O   0  0  0  0  0  0  0  0  0  0  0  0
    3.7473    0.9747    1.0941 H   0  0  0  0  0  0  0  0  0  0  0  0
    3.6540   -0.7391    1.5439 H   0  0  0  0  0  0  0  0  0  0  0  0
    1.4131   -0.3653    2.5409 H   0  0  0  0  0  0  0  0  0  0  0  0
    1.4978    1.3639    2.1386 H   0  0  0  0  0  0  0  0  0  0  0  0
    3.6425    1.3735    3.4865 H   0  0  0  0  0  0  0  0  0  0  0  0
    0.3429   -0.0133    4.3131 H   0  0  0  0  0  0  0  0  0  0  0  0
   -0.8066    0.3823    6.4109 H   0  0  0  0  0  0  0  0  0  0  0  0
    0.2896    1.6382    8.2459 H   0  0  0  0  0  0  0  0  0  0  0  0
    2.5600    2.5312    7.9360 H   0  0  0  0  0  0  0  0  0  0  0  0
    4.1332   -0.5071   -1.0177 H   0  0  0  0  0  0  0  0  0  0  0  0
    1.5587   -0.8393   -2.0126 H   0  0  0  0  0  0  0  0  0  0  0  0
  1  2  2  0  0  0  0
  2  3  1  0  0  0  0
  2 15  1  0  0  0  0
  3  4  1  0  0  0  0
  3 17  1  0  0  0  0
  3 18  1  0  0  0  0
  4  5  1  0  0  0  0
  4 19  1  0  0  0  0
  4 20  1  0  0  0  0
  5  6  1  0  0  0  0
  5 21  1  0  0  0  0
  6  7  1  0  0  0  0
  6 11  2  0  0  0  0
  7  8  2  0  0  0  0
  7 22  1  0  0  0  0
  8  9  1  0  0  0  0
  8 23  1  0  0  0  0
  9 10  2  0  0  0  0
  9 24  1  0  0  0  0
 10 11  1  0  0  0  0
 10 25  1  0  0  0  0
 11 12  1  0  0  0  0
 12 13  2  0  0  0  0
 12 14  1  0  0  0  0
 15 16  1  0  0  0  0
 15 26  1  0  0  0  0
 16 27  1  0  0  0  0
M  CHG  2  12   1  14  -1
M  END
>  <Line_Number>
274


> <IC50>
10530

$$$$
