145957965.0
 OpenBabel09092522103D

 22 22  0  0  0  0  0  0  0  0999 V2000
    2.4899    0.7308    0.9321 O   0  0  0  0  0  0  0  0  0  0  0  0
    2.1688   -0.1692    0.1559 C   0  0  0  0  0  0  0  0  0  0  0  0
    2.9178   -0.4769   -1.1407 C   0  0  0  0  0  0  0  0  0  0  0  0
    1.9800   -0.9321   -2.1851 N   0  0  0  0  0  0  0  0  0  0  0  0
    2.4878   -1.2633   -3.4586 C   0  0  0  0  0  0  0  0  0  0  0  0
    3.7631   -1.8230   -3.6341 C   0  0  0  0  0  0  0  0  0  0  0  0
    4.1986   -2.2339   -4.9007 C   0  0  0  0  0  0  0  0  0  0  0  0
    5.7786   -2.8950   -5.0799 Cl  0  0  0  0  0  0  0  0  0  0  0  0
    3.3708   -2.1209   -6.0133 C   0  0  0  0  0  0  0  0  0  0  0  0
    2.0896   -1.5993   -5.8603 C   0  0  0  0  0  0  0  0  0  0  0  0
    1.6516   -1.1876   -4.5986 C   0  0  0  0  0  0  0  0  0  0  0  0
    0.0504   -0.5427   -4.4652 Cl  0  0  0  0  0  0  0  0  0  0  0  0
    1.1230   -1.0220    0.4100 N   0  0  0  0  0  0  0  0  0  0  0  0
    0.3049   -0.7235    1.5222 O   0  0  0  0  0  0  0  0  0  0  0  0
    3.6527   -1.2512   -0.8992 H   0  0  0  0  0  0  0  0  0  0  0  0
    3.4290    0.4347   -1.4683 H   0  0  0  0  0  0  0  0  0  0  0  0
    1.2013   -0.2729   -2.3060 H   0  0  0  0  0  0  0  0  0  0  0  0
    4.4350   -1.9610   -2.7946 H   0  0  0  0  0  0  0  0  0  0  0  0
    3.7120   -2.4478   -6.9924 H   0  0  0  0  0  0  0  0  0  0  0  0
    1.4342   -1.5194   -6.7242 H   0  0  0  0  0  0  0  0  0  0  0  0
    0.7395   -1.6209   -0.3188 H   0  0  0  0  0  0  0  0  0  0  0  0
    0.7052    0.1034    1.8678 H   0  0  0  0  0  0  0  0  0  0  0  0
  1  2  2  0  0  0  0
  2  3  1  0  0  0  0
  2 13  1  0  0  0  0
  3  4  1  0  0  0  0
  3 15  1  0  0  0  0
  3 16  1  0  0  0  0
  4  5  1  0  0  0  0
  4 17  1  0  0  0  0
  5  6  1  0  0  0  0
  5 11  2  0  0  0  0
  6  7  2  0  0  0  0
  6 18  1  0  0  0  0
  7  8  1  0  0  0  0
  7  9  1  0  0  0  0
  9 10  2  0  0  0  0
  9 19  1  0  0  0  0
 10 11  1  0  0  0  0
 10 20  1  0  0  0  0
 11 12  1  0  0  0  0
 13 14  1  0  0  0  0
 13 21  1  0  0  0  0
 14 22  1  0  0  0  0
M  END
>  <Line_Number>
275


> <IC50>
1640

$$$$
