145958315.0
 OpenBabel09092522103D

 22 22  0  0  0  0  0  0  0  0999 V2000
    2.5377    0.5677   -0.9395 O   0  0  0  0  0  0  0  0  0  0  0  0
    2.2446    0.0697    0.1460 C   0  0  0  0  0  0  0  0  0  0  0  0
    3.0399   -1.0576    0.8013 C   0  0  0  0  0  0  0  0  0  0  0  0
    2.1496   -1.9727    1.5501 N   0  0  0  0  0  0  0  0  0  0  0  0
    2.7627   -3.0728    2.1805 C   0  0  0  0  0  0  0  0  0  0  0  0
    4.0509   -3.0275    2.7275 C   0  0  0  0  0  0  0  0  0  0  0  0
    4.5860   -4.1352    3.3855 C   0  0  0  0  0  0  0  0  0  0  0  0
    5.8311   -4.0658    3.8754 F   0  0  0  0  0  0  0  0  0  0  0  0
    3.8556   -5.3000    3.5482 C   0  0  0  0  0  0  0  0  0  0  0  0
    2.5601   -5.3335    3.0597 C   0  0  0  0  0  0  0  0  0  0  0  0
    1.8228   -6.4394    3.2241 F   0  0  0  0  0  0  0  0  0  0  0  0
    2.0065   -4.2343    2.4009 C   0  0  0  0  0  0  0  0  0  0  0  0
    1.1952    0.5279    0.9035 N   0  0  0  0  0  0  0  0  0  0  0  0
    0.3649    1.5066    0.3167 O   0  0  0  0  0  0  0  0  0  0  0  0
    3.7711   -0.5786    1.4603 H   0  0  0  0  0  0  0  0  0  0  0  0
    3.5564   -1.6123    0.0101 H   0  0  0  0  0  0  0  0  0  0  0  0
    1.3822   -2.2957    0.9573 H   0  0  0  0  0  0  0  0  0  0  0  0
    4.6726   -2.1401    2.6647 H   0  0  0  0  0  0  0  0  0  0  0  0
    4.2791   -6.1553    4.0585 H   0  0  0  0  0  0  0  0  0  0  0  0
    0.9801   -4.3093    2.0529 H   0  0  0  0  0  0  0  0  0  0  0  0
    0.8375    0.0034    1.6985 H   0  0  0  0  0  0  0  0  0  0  0  0
    0.8054    1.6705   -0.5458 H   0  0  0  0  0  0  0  0  0  0  0  0
  1  2  2  0  0  0  0
  2  3  1  0  0  0  0
  2 13  1  0  0  0  0
  3  4  1  0  0  0  0
  3 15  1  0  0  0  0
  3 16  1  0  0  0  0
  4  5  1  0  0  0  0
  4 17  1  0  0  0  0
  5  6  1  0  0  0  0
  5 12  2  0  0  0  0
  6  7  2  0  0  0  0
  6 18  1  0  0  0  0
  7  8  1  0  0  0  0
  7  9  1  0  0  0  0
  9 10  2  0  0  0  0
  9 19  1  0  0  0  0
 10 11  1  0  0  0  0
 10 12  1  0  0  0  0
 12 20  1  0  0  0  0
 13 14  1  0  0  0  0
 13 21  1  0  0  0  0
 14 22  1  0  0  0  0
M  END
>  <Line_Number>
279


> <IC50>
5110

$$$$
