145955567.0
 OpenBabel09092522103D

 25 25  0  0  0  0  0  0  0  0999 V2000
    1.1050   -0.2436    0.0740 O   0  0  0  0  0  0  0  0  0  0  0  0
    2.3215   -0.0790    0.0449 C   0  0  0  0  0  0  0  0  0  0  0  0
    3.0731    0.5626   -1.0974 C   0  0  0  0  0  0  0  0  0  0  0  0
    2.1129    1.0165   -2.1891 C   0  0  0  0  0  0  0  0  0  0  0  0
    2.8587    1.6267   -3.2944 N   0  0  0  0  0  0  0  0  0  0  0  0
    2.1391    2.1189   -4.4048 C   0  0  0  0  0  0  0  0  0  0  0  0
    0.8402    2.6359   -4.2840 C   0  0  0  0  0  0  0  0  0  0  0  0
    0.1787    3.1915   -5.3832 C   0  0  0  0  0  0  0  0  0  0  0  0
   -1.4231    3.7939   -5.1952 Cl  0  0  0  0  0  0  0  0  0  0  0  0
    0.8024    3.2708   -6.6239 C   0  0  0  0  0  0  0  0  0  0  0  0
    2.1051    2.7978   -6.7659 C   0  0  0  0  0  0  0  0  0  0  0  0
    2.7677    2.2402   -5.6662 C   0  0  0  0  0  0  0  0  0  0  0  0
    4.3855    1.6655   -5.9033 Cl  0  0  0  0  0  0  0  0  0  0  0  0
    3.1362   -0.4850    1.0721 N   0  0  0  0  0  0  0  0  0  0  0  0
    2.5151   -1.1076    2.1750 O   0  0  0  0  0  0  0  0  0  0  0  0
    3.7910   -0.1633   -1.4961 H   0  0  0  0  0  0  0  0  0  0  0  0
    3.6375    1.4203   -0.7111 H   0  0  0  0  0  0  0  0  0  0  0  0
    1.4178    1.7400   -1.7491 H   0  0  0  0  0  0  0  0  0  0  0  0
    1.5324    0.1636   -2.5615 H   0  0  0  0  0  0  0  0  0  0  0  0
    3.6413    1.0560   -3.6222 H   0  0  0  0  0  0  0  0  0  0  0  0
    0.3220    2.6241   -3.3309 H   0  0  0  0  0  0  0  0  0  0  0  0
    0.2864    3.7073   -7.4749 H   0  0  0  0  0  0  0  0  0  0  0  0
    2.6006    2.8694   -7.7305 H   0  0  0  0  0  0  0  0  0  0  0  0
    4.1439   -0.3752    1.1050 H   0  0  0  0  0  0  0  0  0  0  0  0
    1.5686   -1.1099    1.9128 H   0  0  0  0  0  0  0  0  0  0  0  0
  1  2  2  0  0  0  0
  2  3  1  0  0  0  0
  2 14  1  0  0  0  0
  3  4  1  0  0  0  0
  3 16  1  0  0  0  0
  3 17  1  0  0  0  0
  4  5  1  0  0  0  0
  4 18  1  0  0  0  0
  4 19  1  0  0  0  0
  5  6  1  0  0  0  0
  5 20  1  0  0  0  0
  6  7  1  0  0  0  0
  6 12  2  0  0  0  0
  7  8  2  0  0  0  0
  7 21  1  0  0  0  0
  8  9  1  0  0  0  0
  8 10  1  0  0  0  0
 10 11  2  0  0  0  0
 10 22  1  0  0  0  0
 11 12  1  0  0  0  0
 11 23  1  0  0  0  0
 12 13  1  0  0  0  0
 14 15  1  0  0  0  0
 14 24  1  0  0  0  0
 15 25  1  0  0  0  0
M  END
>  <Line_Number>
282


> <IC50>
14975

$$$$
