203276.0
 OpenBabel09092522103D

 22 22  0  0  0  0  0  0  0  0999 V2000
    1.1894    0.5702   -0.7630 O   0  0  0  0  0  0  0  0  0  0  0  0
    2.2820    0.1734   -0.3546 C   0  0  0  0  0  0  0  0  0  0  0  0
    3.0343   -1.0142   -0.9586 C   0  0  0  0  0  0  0  0  0  0  0  0
    2.1167   -1.8729   -1.7178 N   0  0  0  0  0  0  0  0  0  0  0  0
    2.6477   -2.6662   -2.7387 C   0  0  0  0  0  0  0  0  0  0  0  0
    3.9429   -3.1979   -2.6929 C   0  0  0  0  0  0  0  0  0  0  0  0
    4.4275   -4.0143   -3.7192 C   0  0  0  0  0  0  0  0  0  0  0  0
    3.6066   -4.3423   -4.7992 C   0  0  0  0  0  0  0  0  0  0  0  0
    4.2738   -5.3371   -6.0437 Cl  0  0  0  0  0  0  0  0  0  0  0  0
    2.2936   -3.8719   -4.8328 C   0  0  0  0  0  0  0  0  0  0  0  0
    1.2056   -4.2572   -6.1191 Cl  0  0  0  0  0  0  0  0  0  0  0  0
    1.8181   -3.0546   -3.7999 C   0  0  0  0  0  0  0  0  0  0  0  0
    2.9533    0.8002    0.6706 N   0  0  0  0  0  0  0  0  0  0  0  0
    2.2561    1.8431    1.3216 O   0  0  0  0  0  0  0  0  0  0  0  0
    3.4920   -1.5951   -0.1506 H   0  0  0  0  0  0  0  0  0  0  0  0
    3.8172   -0.5972   -1.6031 H   0  0  0  0  0  0  0  0  0  0  0  0
    1.2840   -1.3514   -2.0076 H   0  0  0  0  0  0  0  0  0  0  0  0
    4.6005   -2.9901   -1.8536 H   0  0  0  0  0  0  0  0  0  0  0  0
    5.4453   -4.3931   -3.6667 H   0  0  0  0  0  0  0  0  0  0  0  0
    0.7881   -2.7048   -3.8308 H   0  0  0  0  0  0  0  0  0  0  0  0
    3.7080    0.3692    1.1940 H   0  0  0  0  0  0  0  0  0  0  0  0
    1.3928    1.8538    0.8521 H   0  0  0  0  0  0  0  0  0  0  0  0
  1  2  2  0  0  0  0
  2  3  1  0  0  0  0
  2 13  1  0  0  0  0
  3  4  1  0  0  0  0
  3 15  1  0  0  0  0
  3 16  1  0  0  0  0
  4  5  1  0  0  0  0
  4 17  1  0  0  0  0
  5  6  1  0  0  0  0
  5 12  2  0  0  0  0
  6  7  2  0  0  0  0
  6 18  1  0  0  0  0
  7  8  1  0  0  0  0
  7 19  1  0  0  0  0
  8  9  1  0  0  0  0
  8 10  2  0  0  0  0
 10 11  1  0  0  0  0
 10 12  1  0  0  0  0
 12 20  1  0  0  0  0
 13 14  1  0  0  0  0
 13 21  1  0  0  0  0
 14 22  1  0  0  0  0
M  END
>  <Line_Number>
284


> <IC50>
21180

$$$$
