129928412.0
 OpenBabel09092522103D

 22 22  0  0  0  0  0  0  0  0999 V2000
    2.4664   -0.9829    0.3689 O   0  0  0  0  0  0  0  0  0  0  0  0
    2.1945    0.0083   -0.3076 C   0  0  0  0  0  0  0  0  0  0  0  0
    2.9630    1.3257   -0.2174 C   0  0  0  0  0  0  0  0  0  0  0  0
    2.0551    2.4754   -0.4311 N   0  0  0  0  0  0  0  0  0  0  0  0
    2.6418    3.7566   -0.4062 C   0  0  0  0  0  0  0  0  0  0  0  0
    1.9690    4.7913   -1.0749 C   0  0  0  0  0  0  0  0  0  0  0  0
    2.4296    6.1093   -1.0144 C   0  0  0  0  0  0  0  0  0  0  0  0
    3.5505    6.4052   -0.2537 C   0  0  0  0  0  0  0  0  0  0  0  0
    3.9898    7.6681   -0.1817 F   0  0  0  0  0  0  0  0  0  0  0  0
    4.2124    5.4092    0.4499 C   0  0  0  0  0  0  0  0  0  0  0  0
    3.7537    4.0896    0.3791 C   0  0  0  0  0  0  0  0  0  0  0  0
    1.1791    0.0110   -1.2312 N   0  0  0  0  0  0  0  0  0  0  0  0
    0.3286   -1.1186   -1.2222 O   0  0  0  0  0  0  0  0  0  0  0  0
    3.7506    1.3099   -0.9787 H   0  0  0  0  0  0  0  0  0  0  0  0
    3.4077    1.3629    0.7823 H   0  0  0  0  0  0  0  0  0  0  0  0
    1.3211    2.4718    0.2826 H   0  0  0  0  0  0  0  0  0  0  0  0
    1.0820    4.5682   -1.6632 H   0  0  0  0  0  0  0  0  0  0  0  0
    1.9159    6.9019   -1.5483 H   0  0  0  0  0  0  0  0  0  0  0  0
    5.0732    5.6634    1.0599 H   0  0  0  0  0  0  0  0  0  0  0  0
    4.2765    3.3452    0.9713 H   0  0  0  0  0  0  0  0  0  0  0  0
    0.7964    0.8928   -1.5661 H   0  0  0  0  0  0  0  0  0  0  0  0
    0.7334   -1.6856   -0.5299 H   0  0  0  0  0  0  0  0  0  0  0  0
  1  2  2  0  0  0  0
  2  3  1  0  0  0  0
  2 12  1  0  0  0  0
  3  4  1  0  0  0  0
  3 14  1  0  0  0  0
  3 15  1  0  0  0  0
  4  5  1  0  0  0  0
  4 16  1  0  0  0  0
  5  6  1  0  0  0  0
  5 11  2  0  0  0  0
  6  7  2  0  0  0  0
  6 17  1  0  0  0  0
  7  8  1  0  0  0  0
  7 18  1  0  0  0  0
  8  9  1  0  0  0  0
  8 10  2  0  0  0  0
 10 11  1  0  0  0  0
 10 19  1  0  0  0  0
 11 20  1  0  0  0  0
 12 13  1  0  0  0  0
 12 21  1  0  0  0  0
 13 22  1  0  0  0  0
M  END
>  <Line_Number>
286


> <IC50>
7410

$$$$
