145954976.0
 OpenBabel09092522113D

 22 22  0  0  0  0  0  0  0  0999 V2000
    2.1839   -1.8242   -1.3265 O   0  0  0  0  0  0  0  0  0  0  0  0
    3.1227   -1.4403   -0.6290 C   0  0  0  0  0  0  0  0  0  0  0  0
    2.9808   -1.0479    0.8402 C   0  0  0  0  0  0  0  0  0  0  0  0
    2.0501   -1.9163    1.5684 N   0  0  0  0  0  0  0  0  0  0  0  0
    2.5451   -3.0390    2.2514 C   0  0  0  0  0  0  0  0  0  0  0  0
    3.6347   -3.7838    1.7785 C   0  0  0  0  0  0  0  0  0  0  0  0
    4.0963   -4.9119    2.4687 C   0  0  0  0  0  0  0  0  0  0  0  0
    3.4563   -5.3231    3.6330 C   0  0  0  0  0  0  0  0  0  0  0  0
    4.0488   -6.6891    4.4931 Cl  0  0  0  0  0  0  0  0  0  0  0  0
    2.3382   -4.6418    4.0987 C   0  0  0  0  0  0  0  0  0  0  0  0
    1.8756   -3.5231    3.3998 C   0  0  0  0  0  0  0  0  0  0  0  0
    0.4677   -2.7212    4.0142 Cl  0  0  0  0  0  0  0  0  0  0  0  0
    4.3983   -1.3181   -1.1253 N   0  0  0  0  0  0  0  0  0  0  0  0
    4.5807   -1.5921   -2.4978 O   0  0  0  0  0  0  0  0  0  0  0  0
    2.5757   -0.0299    0.8504 H   0  0  0  0  0  0  0  0  0  0  0  0
    3.9572   -1.0053    1.3366 H   0  0  0  0  0  0  0  0  0  0  0  0
    1.2514   -2.1782    0.9841 H   0  0  0  0  0  0  0  0  0  0  0  0
    4.1446   -3.5177    0.8580 H   0  0  0  0  0  0  0  0  0  0  0  0
    4.9512   -5.4613    2.0857 H   0  0  0  0  0  0  0  0  0  0  0  0
    1.8269   -4.9768    4.9966 H   0  0  0  0  0  0  0  0  0  0  0  0
    5.1942   -0.9417   -0.6218 H   0  0  0  0  0  0  0  0  0  0  0  0
    3.6601   -1.7405   -2.8114 H   0  0  0  0  0  0  0  0  0  0  0  0
  1  2  2  0  0  0  0
  2  3  1  0  0  0  0
  2 13  1  0  0  0  0
  3  4  1  0  0  0  0
  3 15  1  0  0  0  0
  3 16  1  0  0  0  0
  4  5  1  0  0  0  0
  4 17  1  0  0  0  0
  5  6  1  0  0  0  0
  5 11  2  0  0  0  0
  6  7  2  0  0  0  0
  6 18  1  0  0  0  0
  7  8  1  0  0  0  0
  7 19  1  0  0  0  0
  8  9  1  0  0  0  0
  8 10  2  0  0  0  0
 10 11  1  0  0  0  0
 10 20  1  0  0  0  0
 11 12  1  0  0  0  0
 13 14  1  0  0  0  0
 13 21  1  0  0  0  0
 14 22  1  0  0  0  0
M  END
>  <Line_Number>
287


> <IC50>
66100

$$$$
