49844560.0
 OpenBabel09092522103D

 30 31  0  0  0  0  0  0  0  0999 V2000
    1.7449   -1.4126    0.1021 O   0  0  0  0  0  0  0  0  0  0  0  0
    0.5538   -0.7437    0.0694 C   0  0  0  0  0  0  0  0  0  0  0  0
   -0.5504   -1.3020   -0.5654 C   0  0  0  0  0  0  0  0  0  0  0  0
   -1.7629   -0.6044   -0.5929 C   0  0  0  0  0  0  0  0  0  0  0  0
   -1.8914    0.6487    0.0270 C   0  0  0  0  0  0  0  0  0  0  0  0
   -3.1799    1.4496   -0.0085 C   0  0  0  0  0  0  0  0  0  0  0  0
   -4.4690    0.6163   -0.0181 C   0  0  0  0  0  0  0  0  0  0  0  0
   -5.7195    1.4627    0.0334 C   0  0  0  0  0  0  0  0  0  0  0  0
   -6.2841    1.8226    1.2646 C   0  0  0  0  0  0  0  0  0  0  0  0
   -7.4610    2.5731    1.3141 C   0  0  0  0  0  0  0  0  0  0  0  0
   -8.0838    2.9768    0.1337 C   0  0  0  0  0  0  0  0  0  0  0  0
   -7.5198    2.6346   -1.0931 C   0  0  0  0  0  0  0  0  0  0  0  0
   -8.3667    3.1749   -2.6954 Br  0  0  0  0  0  0  0  0  0  0  0  0
   -6.3423    1.8868   -1.1498 C   0  0  0  0  0  0  0  0  0  0  0  0
   -0.7586    1.2049    0.6478 C   0  0  0  0  0  0  0  0  0  0  0  0
    0.4520    0.5083    0.6707 C   0  0  0  0  0  0  0  0  0  0  0  0
    1.5497    1.0493    1.2784 O   0  0  0  0  0  0  0  0  0  0  0  0
    1.6437   -2.2605   -0.3551 H   0  0  0  0  0  0  0  0  0  0  0  0
   -0.4881   -2.2723   -1.0481 H   0  0  0  0  0  0  0  0  0  0  0  0
   -2.6000   -1.0626   -1.1132 H   0  0  0  0  0  0  0  0  0  0  0  0
   -3.1491    2.1013   -0.8909 H   0  0  0  0  0  0  0  0  0  0  0  0
   -3.2033    2.1103    0.8690 H   0  0  0  0  0  0  0  0  0  0  0  0
   -4.4732   -0.0813    0.8298 H   0  0  0  0  0  0  0  0  0  0  0  0
   -4.5195   -0.0089   -0.9177 H   0  0  0  0  0  0  0  0  0  0  0  0
   -5.8167    1.5078    2.1961 H   0  0  0  0  0  0  0  0  0  0  0  0
   -7.8975    2.8355    2.2745 H   0  0  0  0  0  0  0  0  0  0  0  0
   -9.0055    3.5506    0.1812 H   0  0  0  0  0  0  0  0  0  0  0  0
   -5.9165    1.6207   -2.1145 H   0  0  0  0  0  0  0  0  0  0  0  0
   -0.8296    2.1852    1.1111 H   0  0  0  0  0  0  0  0  0  0  0  0
    1.3210    1.9227    1.6281 H   0  0  0  0  0  0  0  0  0  0  0  0
  1  2  1  0  0  0  0
  1 18  1  0  0  0  0
  2  3  1  0  0  0  0
  2 16  2  0  0  0  0
  3  4  2  0  0  0  0
  3 19  1  0  0  0  0
  4  5  1  0  0  0  0
  4 20  1  0  0  0  0
  5  6  1  0  0  0  0
  5 15  2  0  0  0  0
  6  7  1  0  0  0  0
  6 21  1  0  0  0  0
  6 22  1  0  0  0  0
  7  8  1  0  0  0  0
  7 23  1  0  0  0  0
  7 24  1  0  0  0  0
  8  9  1  0  0  0  0
  8 14  2  0  0  0  0
  9 10  2  0  0  0  0
  9 25  1  0  0  0  0
 10 11  1  0  0  0  0
 10 26  1  0  0  0  0
 11 12  2  0  0  0  0
 11 27  1  0  0  0  0
 12 13  1  0  0  0  0
 12 14  1  0  0  0  0
 14 28  1  0  0  0  0
 15 16  1  0  0  0  0
 15 29  1  0  0  0  0
 16 17  1  0  0  0  0
 17 30  1  0  0  0  0
M  END
>  <Line_Number>
28


> <IC50>
52900

$$$$
