145959786.0
 OpenBabel09092522113D

 29 30  0  0  0  0  0  0  0  0999 V2000
    2.6503    1.2561    0.1036 O   0  0  0  0  0  0  0  0  0  0  0  0
    2.2372    0.0989    0.0354 C   0  0  0  0  0  0  0  0  0  0  0  0
    2.9198   -1.0057   -0.7739 C   0  0  0  0  0  0  0  0  0  0  0  0
    1.9383   -2.0116   -1.2374 N   0  0  0  0  0  0  0  0  0  0  0  0
    1.0450   -1.6194   -2.3333 C   0  0  0  0  0  0  0  0  0  0  0  0
    1.2412   -2.5114   -3.5440 C   0  0  0  0  0  0  0  0  0  0  0  0
    0.9548   -3.9570   -3.1653 C   0  0  0  0  0  0  0  0  0  0  0  0
    1.6224   -4.3461   -1.8688 C   0  0  0  0  0  0  0  0  0  0  0  0
    1.7312   -5.7162   -1.5674 C   0  0  0  0  0  0  0  0  0  0  0  0
    2.3258   -6.1359   -0.3829 C   0  0  0  0  0  0  0  0  0  0  0  0
    2.8104   -5.1893    0.5093 C   0  0  0  0  0  0  0  0  0  0  0  0
    2.6950   -3.8250    0.2183 C   0  0  0  0  0  0  0  0  0  0  0  0
    2.0997   -3.3679   -0.9689 C   0  0  0  0  0  0  0  0  0  0  0  0
    1.1254   -0.3258    0.7276 N   0  0  0  0  0  0  0  0  0  0  0  0
    0.3600    0.6780    1.3633 O   0  0  0  0  0  0  0  0  0  0  0  0
    3.7186   -1.4252   -0.1534 H   0  0  0  0  0  0  0  0  0  0  0  0
    3.4019   -0.5452   -1.6454 H   0  0  0  0  0  0  0  0  0  0  0  0
    1.2167   -0.5757   -2.6208 H   0  0  0  0  0  0  0  0  0  0  0  0
    0.0078   -1.6788   -1.9808 H   0  0  0  0  0  0  0  0  0  0  0  0
    2.2697   -2.4161   -3.9141 H   0  0  0  0  0  0  0  0  0  0  0  0
    0.5724   -2.2029   -4.3556 H   0  0  0  0  0  0  0  0  0  0  0  0
    1.3012   -4.6076   -3.9752 H   0  0  0  0  0  0  0  0  0  0  0  0
   -0.1264   -4.1053   -3.0537 H   0  0  0  0  0  0  0  0  0  0  0  0
    1.3473   -6.4604   -2.2617 H   0  0  0  0  0  0  0  0  0  0  0  0
    2.4020   -7.1954   -0.1545 H   0  0  0  0  0  0  0  0  0  0  0  0
    3.2669   -5.5071    1.4434 H   0  0  0  0  0  0  0  0  0  0  0  0
    3.0518   -3.1265    0.9694 H   0  0  0  0  0  0  0  0  0  0  0  0
    0.6504   -1.1753    0.4253 H   0  0  0  0  0  0  0  0  0  0  0  0
    0.9077    1.4808    1.2244 H   0  0  0  0  0  0  0  0  0  0  0  0
  1  2  2  0  0  0  0
  2  3  1  0  0  0  0
  2 14  1  0  0  0  0
  3  4  1  0  0  0  0
  3 16  1  0  0  0  0
  3 17  1  0  0  0  0
  4  5  1  0  0  0  0
  4 13  1  0  0  0  0
  5  6  1  0  0  0  0
  5 18  1  0  0  0  0
  5 19  1  0  0  0  0
  6  7  1  0  0  0  0
  6 20  1  0  0  0  0
  6 21  1  0  0  0  0
  7  8  1  0  0  0  0
  7 22  1  0  0  0  0
  7 23  1  0  0  0  0
  8  9  1  0  0  0  0
  8 13  2  0  0  0  0
  9 10  2  0  0  0  0
  9 24  1  0  0  0  0
 10 11  1  0  0  0  0
 10 25  1  0  0  0  0
 11 12  2  0  0  0  0
 11 26  1  0  0  0  0
 12 13  1  0  0  0  0
 12 27  1  0  0  0  0
 14 15  1  0  0  0  0
 14 28  1  0  0  0  0
 15 29  1  0  0  0  0
M  END
>  <Line_Number>
292


> <IC50>
71100

$$$$
