145956007.0
 OpenBabel09092522113D

 25 25  0  0  0  0  0  0  0  0999 V2000
    0.9625    0.0201   -0.1886 O   0  0  0  0  0  0  0  0  0  0  0  0
    2.1781   -0.0177   -0.0055 C   0  0  0  0  0  0  0  0  0  0  0  0
    2.9278    0.8896    0.9419 C   0  0  0  0  0  0  0  0  0  0  0  0
    1.9488    1.8093    1.6585 C   0  0  0  0  0  0  0  0  0  0  0  0
    2.6548    2.7229    2.5669 N   0  0  0  0  0  0  0  0  0  0  0  0
    1.8534    3.6501    3.2640 C   0  0  0  0  0  0  0  0  0  0  0  0
    0.5431    3.3708    3.6745 C   0  0  0  0  0  0  0  0  0  0  0  0
   -0.1978    4.3088    4.3925 C   0  0  0  0  0  0  0  0  0  0  0  0
   -1.4579    4.0185    4.7423 F   0  0  0  0  0  0  0  0  0  0  0  0
    0.3454    5.5295    4.7516 C   0  0  0  0  0  0  0  0  0  0  0  0
    1.6599    5.7900    4.4021 C   0  0  0  0  0  0  0  0  0  0  0  0
    2.2148    6.9562    4.7584 F   0  0  0  0  0  0  0  0  0  0  0  0
    2.4181    4.8624    3.6849 C   0  0  0  0  0  0  0  0  0  0  0  0
    2.9809   -0.9026   -0.6774 N   0  0  0  0  0  0  0  0  0  0  0  0
    2.3398   -1.7821   -1.5760 O   0  0  0  0  0  0  0  0  0  0  0  0
    3.6587    1.4714    0.3695 H   0  0  0  0  0  0  0  0  0  0  0  0
    3.4728    0.2742    1.6671 H   0  0  0  0  0  0  0  0  0  0  0  0
    1.2464    1.1810    2.2175 H   0  0  0  0  0  0  0  0  0  0  0  0
    1.3803    2.3932    0.9234 H   0  0  0  0  0  0  0  0  0  0  0  0
    3.4357    3.1957    2.1137 H   0  0  0  0  0  0  0  0  0  0  0  0
    0.0613    2.4254    3.4530 H   0  0  0  0  0  0  0  0  0  0  0  0
   -0.2397    6.2541    5.3040 H   0  0  0  0  0  0  0  0  0  0  0  0
    3.4484    5.1122    3.4508 H   0  0  0  0  0  0  0  0  0  0  0  0
    3.9802   -1.0143   -0.5481 H   0  0  0  0  0  0  0  0  0  0  0  0
    1.3976   -1.5115   -1.5022 H   0  0  0  0  0  0  0  0  0  0  0  0
  1  2  2  0  0  0  0
  2  3  1  0  0  0  0
  2 14  1  0  0  0  0
  3  4  1  0  0  0  0
  3 16  1  0  0  0  0
  3 17  1  0  0  0  0
  4  5  1  0  0  0  0
  4 18  1  0  0  0  0
  4 19  1  0  0  0  0
  5  6  1  0  0  0  0
  5 20  1  0  0  0  0
  6  7  1  0  0  0  0
  6 13  2  0  0  0  0
  7  8  2  0  0  0  0
  7 21  1  0  0  0  0
  8  9  1  0  0  0  0
  8 10  1  0  0  0  0
 10 11  2  0  0  0  0
 10 22  1  0  0  0  0
 11 12  1  0  0  0  0
 11 13  1  0  0  0  0
 13 23  1  0  0  0  0
 14 15  1  0  0  0  0
 14 24  1  0  0  0  0
 15 25  1  0  0  0  0
M  END
>  <Line_Number>
293


> <IC50>
1520

$$$$
