22716931.0
 OpenBabel09092522113D

 22 22  0  0  0  0  0  0  0  0999 V2000
    2.7364    0.2990   -1.1314 O   0  0  0  0  0  0  0  0  0  0  0  0
    2.4160   -0.4445   -0.2043 C   0  0  0  0  0  0  0  0  0  0  0  0
    3.0410   -0.3746    1.1931 C   0  0  0  0  0  0  0  0  0  0  0  0
    2.1701   -1.0245    2.1850 N   0  0  0  0  0  0  0  0  0  0  0  0
    2.5535   -1.0845    3.5290 C   0  0  0  0  0  0  0  0  0  0  0  0
    3.7974   -0.6722    4.0171 C   0  0  0  0  0  0  0  0  0  0  0  0
    4.1207   -0.8104    5.3726 C   0  0  0  0  0  0  0  0  0  0  0  0
    3.2150   -1.3931    6.2541 C   0  0  0  0  0  0  0  0  0  0  0  0
    1.9857   -1.8398    5.7817 C   0  0  0  0  0  0  0  0  0  0  0  0
    1.6623   -1.6861    4.4310 C   0  0  0  0  0  0  0  0  0  0  0  0
    1.4753   -1.4368   -0.3517 N   0  0  0  0  0  0  0  0  0  0  0  0
    0.9511   -1.6334   -1.6467 O   0  0  0  0  0  0  0  0  0  0  0  0
    3.1893    0.6805    1.4445 H   0  0  0  0  0  0  0  0  0  0  0  0
    4.0084   -0.8888    1.1355 H   0  0  0  0  0  0  0  0  0  0  0  0
    1.2045   -0.6975    2.1196 H   0  0  0  0  0  0  0  0  0  0  0  0
    4.5385   -0.2201    3.3660 H   0  0  0  0  0  0  0  0  0  0  0  0
    5.0845   -0.4630    5.7382 H   0  0  0  0  0  0  0  0  0  0  0  0
    3.4713   -1.5078    7.3033 H   0  0  0  0  0  0  0  0  0  0  0  0
    1.2775   -2.3112    6.4577 H   0  0  0  0  0  0  0  0  0  0  0  0
    0.7036   -2.0595    4.0792 H   0  0  0  0  0  0  0  0  0  0  0  0
    1.4285   -2.2090    0.3089 H   0  0  0  0  0  0  0  0  0  0  0  0
    1.4030   -0.9345   -2.1680 H   0  0  0  0  0  0  0  0  0  0  0  0
  1  2  2  0  0  0  0
  2  3  1  0  0  0  0
  2 11  1  0  0  0  0
  3  4  1  0  0  0  0
  3 13  1  0  0  0  0
  3 14  1  0  0  0  0
  4  5  1  0  0  0  0
  4 15  1  0  0  0  0
  5  6  1  0  0  0  0
  5 10  2  0  0  0  0
  6  7  2  0  0  0  0
  6 16  1  0  0  0  0
  7  8  1  0  0  0  0
  7 17  1  0  0  0  0
  8  9  2  0  0  0  0
  8 18  1  0  0  0  0
  9 10  1  0  0  0  0
  9 19  1  0  0  0  0
 10 20  1  0  0  0  0
 11 12  1  0  0  0  0
 11 21  1  0  0  0  0
 12 22  1  0  0  0  0
M  END
>  <Line_Number>
296


> <IC50>
4670

$$$$
