145955675.0
 OpenBabel09092522113D

 25 25  0  0  0  0  0  0  0  0999 V2000
    1.1896    0.1684    0.5621 O   0  0  0  0  0  0  0  0  0  0  0  0
    2.3815    0.0855    0.2674 C   0  0  0  0  0  0  0  0  0  0  0  0
    3.1032   -1.2098   -0.0340 C   0  0  0  0  0  0  0  0  0  0  0  0
    2.1015   -2.3597   -0.0328 C   0  0  0  0  0  0  0  0  0  0  0  0
    2.7464   -3.6335   -0.3574 N   0  0  0  0  0  0  0  0  0  0  0  0
    1.9944   -4.8400   -0.3044 C   0  0  0  0  0  0  0  0  0  0  0  0
    0.6363   -5.0055   -0.6692 C   0  0  0  0  0  0  0  0  0  0  0  0
   -0.4088   -3.7468   -1.2387 Cl  0  0  0  0  0  0  0  0  0  0  0  0
    0.0159   -6.2686   -0.6342 C   0  0  0  0  0  0  0  0  0  0  0  0
    0.7257   -7.4094   -0.2816 C   0  0  0  0  0  0  0  0  0  0  0  0
    2.0710   -7.2966    0.0331 C   0  0  0  0  0  0  0  0  0  0  0  0
    2.6919   -6.0396    0.0147 C   0  0  0  0  0  0  0  0  0  0  0  0
    4.3793   -5.9946    0.4316 Cl  0  0  0  0  0  0  0  0  0  0  0  0
    3.1790    1.1982    0.2040 N   0  0  0  0  0  0  0  0  0  0  0  0
    2.5480    2.4383    0.4459 O   0  0  0  0  0  0  0  0  0  0  0  0
    3.8873   -1.3653    0.7145 H   0  0  0  0  0  0  0  0  0  0  0  0
    3.5799   -1.1275   -1.0187 H   0  0  0  0  0  0  0  0  0  0  0  0
    1.3704   -2.1015   -0.7965 H   0  0  0  0  0  0  0  0  0  0  0  0
    1.6036   -2.4276    0.9418 H   0  0  0  0  0  0  0  0  0  0  0  0
    3.6175   -3.7694    0.1621 H   0  0  0  0  0  0  0  0  0  0  0  0
   -1.0342   -6.3642   -0.9060 H   0  0  0  0  0  0  0  0  0  0  0  0
    0.2321   -8.3775   -0.2727 H   0  0  0  0  0  0  0  0  0  0  0  0
    2.6370   -8.1899    0.2881 H   0  0  0  0  0  0  0  0  0  0  0  0
    4.1472    1.2172   -0.0946 H   0  0  0  0  0  0  0  0  0  0  0  0
    1.6185    2.1709    0.6241 H   0  0  0  0  0  0  0  0  0  0  0  0
  1  2  2  0  0  0  0
  2  3  1  0  0  0  0
  2 14  1  0  0  0  0
  3  4  1  0  0  0  0
  3 16  1  0  0  0  0
  3 17  1  0  0  0  0
  4  5  1  0  0  0  0
  4 18  1  0  0  0  0
  4 19  1  0  0  0  0
  5  6  1  0  0  0  0
  5 20  1  0  0  0  0
  6  7  1  0  0  0  0
  6 12  2  0  0  0  0
  7  8  1  0  0  0  0
  7  9  2  0  0  0  0
  9 10  1  0  0  0  0
  9 21  1  0  0  0  0
 10 11  2  0  0  0  0
 10 22  1  0  0  0  0
 11 12  1  0  0  0  0
 11 23  1  0  0  0  0
 12 13  1  0  0  0  0
 14 15  1  0  0  0  0
 14 24  1  0  0  0  0
 15 25  1  0  0  0  0
M  END
>  <Line_Number>
298


> <IC50>
25000

$$$$
