145956736.0
 OpenBabel09092522113D

 26 26  0  0  0  0  0  0  0  0999 V2000
    1.2021   -0.1857   -0.3090 C   0  0  0  0  0  0  0  0  0  0  0  0
    2.4563    0.1885    0.2438 O   0  0  0  0  0  0  0  0  0  0  0  0
    3.1513   -0.7763    0.9205 C   0  0  0  0  0  0  0  0  0  0  0  0
    2.7290   -2.0806    1.1605 C   0  0  0  0  0  0  0  0  0  0  0  0
    3.5477   -2.9510    1.8816 C   0  0  0  0  0  0  0  0  0  0  0  0
    4.7953   -2.5215    2.3484 C   0  0  0  0  0  0  0  0  0  0  0  0
    5.2620   -1.2319    2.0731 C   0  0  0  0  0  0  0  0  0  0  0  0
    6.5023   -0.8361    2.6228 N   0  0  0  0  0  0  0  0  0  0  0  0
    7.2192    0.2206    1.8684 C   0  0  0  0  0  0  0  0  0  0  0  0
    8.5406    0.5911    2.5357 C   0  0  0  0  0  0  0  0  0  0  0  0
    9.0662    1.6969    2.4305 O   0  0  0  0  0  0  0  0  0  0  0  0
    9.1309   -0.4320    3.2341 N   0  0  0  0  0  0  0  0  0  0  0  0
   10.3066   -0.1216    3.9479 O   0  0  0  0  0  0  0  0  0  0  0  0
    4.4002   -0.3590    1.3963 C   0  0  0  0  0  0  0  0  0  0  0  0
    0.8409    0.6535   -0.9114 H   0  0  0  0  0  0  0  0  0  0  0  0
    0.4707   -0.3713    0.4840 H   0  0  0  0  0  0  0  0  0  0  0  0
    1.2959   -1.0507   -0.9734 H   0  0  0  0  0  0  0  0  0  0  0  0
    1.7705   -2.4470    0.8102 H   0  0  0  0  0  0  0  0  0  0  0  0
    3.2169   -3.9665    2.0789 H   0  0  0  0  0  0  0  0  0  0  0  0
    5.4158   -3.2151    2.9118 H   0  0  0  0  0  0  0  0  0  0  0  0
    6.3183   -0.5219    3.5790 H   0  0  0  0  0  0  0  0  0  0  0  0
    6.6306    1.1426    1.8238 H   0  0  0  0  0  0  0  0  0  0  0  0
    7.4477   -0.1284    0.8549 H   0  0  0  0  0  0  0  0  0  0  0  0
    8.6243   -1.2820    3.4629 H   0  0  0  0  0  0  0  0  0  0  0  0
   10.4716    0.8113    3.6877 H   0  0  0  0  0  0  0  0  0  0  0  0
    4.6697    0.6777    1.2218 H   0  0  0  0  0  0  0  0  0  0  0  0
  1  2  1  0  0  0  0
  1 15  1  0  0  0  0
  1 16  1  0  0  0  0
  1 17  1  0  0  0  0
  2  3  1  0  0  0  0
  3  4  1  0  0  0  0
  3 14  2  0  0  0  0
  4  5  2  0  0  0  0
  4 18  1  0  0  0  0
  5  6  1  0  0  0  0
  5 19  1  0  0  0  0
  6  7  2  0  0  0  0
  6 20  1  0  0  0  0
  7  8  1  0  0  0  0
  7 14  1  0  0  0  0
  8  9  1  0  0  0  0
  8 21  1  0  0  0  0
  9 10  1  0  0  0  0
  9 22  1  0  0  0  0
  9 23  1  0  0  0  0
 10 11  2  0  0  0  0
 10 12  1  0  0  0  0
 12 13  1  0  0  0  0
 12 24  1  0  0  0  0
 13 25  1  0  0  0  0
 14 26  1  0  0  0  0
M  END
>  <Line_Number>
299


> <IC50>
21810

$$$$
