49844399.0
 OpenBabel09092522103D

 31 32  0  0  0  0  0  0  0  0999 V2000
    2.2055    1.1439    0.4789 O   0  0  0  0  0  0  0  0  0  0  0  0
    1.0868    0.3701    0.3545 C   0  0  0  0  0  0  0  0  0  0  0  0
    0.4192   -0.0981    1.4810 C   0  0  0  0  0  0  0  0  0  0  0  0
   -0.7192   -0.8992    1.3303 C   0  0  0  0  0  0  0  0  0  0  0  0
   -1.2080   -1.2566    0.0569 C   0  0  0  0  0  0  0  0  0  0  0  0
   -2.4371   -2.1379   -0.0170 C   0  0  0  0  0  0  0  0  0  0  0  0
   -3.7450   -1.3314   -0.0096 C   0  0  0  0  0  0  0  0  0  0  0  0
   -5.0243   -2.1445    0.0708 C   0  0  0  0  0  0  0  0  0  0  0  0
   -6.1499   -1.5748    0.6928 C   0  0  0  0  0  0  0  0  0  0  0  0
   -7.3654   -2.2639    0.7566 C   0  0  0  0  0  0  0  0  0  0  0  0
   -7.4719   -3.5275    0.1889 C   0  0  0  0  0  0  0  0  0  0  0  0
   -8.9673   -4.3765    0.2579 Cl  0  0  0  0  0  0  0  0  0  0  0  0
   -6.3751   -4.1056   -0.4438 C   0  0  0  0  0  0  0  0  0  0  0  0
   -5.1590   -3.4147   -0.5085 C   0  0  0  0  0  0  0  0  0  0  0  0
   -0.5259   -0.7625   -1.0628 C   0  0  0  0  0  0  0  0  0  0  0  0
   -0.8957   -1.0213   -2.3579 O   0  0  0  0  0  0  0  0  0  0  0  0
    0.6122    0.0416   -0.9106 C   0  0  0  0  0  0  0  0  0  0  0  0
    1.2593    0.4954   -2.0312 O   0  0  0  0  0  0  0  0  0  0  0  0
    2.4132    1.2570    1.4186 H   0  0  0  0  0  0  0  0  0  0  0  0
    0.7662    0.1483    2.4800 H   0  0  0  0  0  0  0  0  0  0  0  0
   -1.2268   -1.2541    2.2265 H   0  0  0  0  0  0  0  0  0  0  0  0
   -2.4255   -2.8308    0.8353 H   0  0  0  0  0  0  0  0  0  0  0  0
   -2.3748   -2.7810   -0.9014 H   0  0  0  0  0  0  0  0  0  0  0  0
   -3.7998   -0.7034   -0.9078 H   0  0  0  0  0  0  0  0  0  0  0  0
   -3.7212   -0.6474    0.8499 H   0  0  0  0  0  0  0  0  0  0  0  0
   -6.0887   -0.5808    1.1336 H   0  0  0  0  0  0  0  0  0  0  0  0
   -8.2220   -1.8036    1.2438 H   0  0  0  0  0  0  0  0  0  0  0  0
   -6.4597   -5.0914   -0.8942 H   0  0  0  0  0  0  0  0  0  0  0  0
   -4.3299   -3.8917   -1.0236 H   0  0  0  0  0  0  0  0  0  0  0  0
   -1.6457   -1.6348   -2.3667 H   0  0  0  0  0  0  0  0  0  0  0  0
    0.7434    0.1340   -2.7764 H   0  0  0  0  0  0  0  0  0  0  0  0
  1  2  1  0  0  0  0
  1 19  1  0  0  0  0
  2  3  1  0  0  0  0
  2 17  2  0  0  0  0
  3  4  2  0  0  0  0
  3 20  1  0  0  0  0
  4  5  1  0  0  0  0
  4 21  1  0  0  0  0
  5  6  1  0  0  0  0
  5 15  2  0  0  0  0
  6  7  1  0  0  0  0
  6 22  1  0  0  0  0
  6 23  1  0  0  0  0
  7  8  1  0  0  0  0
  7 24  1  0  0  0  0
  7 25  1  0  0  0  0
  8  9  1  0  0  0  0
  8 14  2  0  0  0  0
  9 10  2  0  0  0  0
  9 26  1  0  0  0  0
 10 11  1  0  0  0  0
 10 27  1  0  0  0  0
 11 12  1  0  0  0  0
 11 13  2  0  0  0  0
 13 14  1  0  0  0  0
 13 28  1  0  0  0  0
 14 29  1  0  0  0  0
 15 16  1  0  0  0  0
 15 17  1  0  0  0  0
 16 30  1  0  0  0  0
 17 18  1  0  0  0  0
 18 31  1  0  0  0  0
M  END
>  <Line_Number>
29


> <IC50>
47000

$$$$
