145953035.0
 OpenBabel09092522113D

 32 33  0  0  0  0  0  0  0  0999 V2000
    0.9154   -0.1630    0.0952 O   0  0  0  0  0  0  0  0  0  0  0  0
    1.2717    0.8106   -0.5621 C   0  0  0  0  0  0  0  0  0  0  0  0
    2.0035    2.0043    0.0016 C   0  0  0  0  0  0  0  0  0  0  0  0
    2.1370    1.9267    1.5226 C   0  0  0  0  0  0  0  0  0  0  0  0
    2.8586    3.1013    2.0266 N   0  0  0  0  0  0  0  0  0  0  0  0
    4.1342    2.9111    2.7139 C   0  0  0  0  0  0  0  0  0  0  0  0
    5.1213    3.9600    2.2262 C   0  0  0  0  0  0  0  0  0  0  0  0
    4.6022    5.3540    2.5561 C   0  0  0  0  0  0  0  0  0  0  0  0
    3.1129    5.4941    2.3588 C   0  0  0  0  0  0  0  0  0  0  0  0
    2.5522    6.7806    2.4545 C   0  0  0  0  0  0  0  0  0  0  0  0
    1.1778    6.9681    2.3341 C   0  0  0  0  0  0  0  0  0  0  0  0
    0.3579    5.8674    2.1178 C   0  0  0  0  0  0  0  0  0  0  0  0
    0.9100    4.5899    2.0100 C   0  0  0  0  0  0  0  0  0  0  0  0
    2.2917    4.3666    2.1290 C   0  0  0  0  0  0  0  0  0  0  0  0
    1.0601    0.8984   -1.9174 N   0  0  0  0  0  0  0  0  0  0  0  0
    0.4649   -0.2101   -2.5558 O   0  0  0  0  0  0  0  0  0  0  0  0
    1.4680    2.9111   -0.3007 H   0  0  0  0  0  0  0  0  0  0  0  0
    2.9998    2.0394   -0.4572 H   0  0  0  0  0  0  0  0  0  0  0  0
    2.6839    1.0110    1.7818 H   0  0  0  0  0  0  0  0  0  0  0  0
    1.1613    1.8199    2.0094 H   0  0  0  0  0  0  0  0  0  0  0  0
    4.5468    1.9157    2.5154 H   0  0  0  0  0  0  0  0  0  0  0  0
    3.9882    2.9851    3.7997 H   0  0  0  0  0  0  0  0  0  0  0  0
    5.2514    3.8625    1.1406 H   0  0  0  0  0  0  0  0  0  0  0  0
    6.1049    3.8096    2.6847 H   0  0  0  0  0  0  0  0  0  0  0  0
    5.1343    6.0876    1.9368 H   0  0  0  0  0  0  0  0  0  0  0  0
    4.8300    5.5833    3.6062 H   0  0  0  0  0  0  0  0  0  0  0  0
    3.1929    7.6419    2.6330 H   0  0  0  0  0  0  0  0  0  0  0  0
    0.7533    7.9609    2.4186 H   0  0  0  0  0  0  0  0  0  0  0  0
   -0.7183    5.9997    2.0426 H   0  0  0  0  0  0  0  0  0  0  0  0
    0.2241    3.7626    1.8622 H   0  0  0  0  0  0  0  0  0  0  0  0
    1.3874    1.6531   -2.5099 H   0  0  0  0  0  0  0  0  0  0  0  0
    0.5002   -0.9026   -1.8613 H   0  0  0  0  0  0  0  0  0  0  0  0
  1  2  2  0  0  0  0
  2  3  1  0  0  0  0
  2 15  1  0  0  0  0
  3  4  1  0  0  0  0
  3 17  1  0  0  0  0
  3 18  1  0  0  0  0
  4  5  1  0  0  0  0
  4 19  1  0  0  0  0
  4 20  1  0  0  0  0
  5  6  1  0  0  0  0
  5 14  1  0  0  0  0
  6  7  1  0  0  0  0
  6 21  1  0  0  0  0
  6 22  1  0  0  0  0
  7  8  1  0  0  0  0
  7 23  1  0  0  0  0
  7 24  1  0  0  0  0
  8  9  1  0  0  0  0
  8 25  1  0  0  0  0
  8 26  1  0  0  0  0
  9 10  1  0  0  0  0
  9 14  2  0  0  0  0
 10 11  2  0  0  0  0
 10 27  1  0  0  0  0
 11 12  1  0  0  0  0
 11 28  1  0  0  0  0
 12 13  2  0  0  0  0
 12 29  1  0  0  0  0
 13 14  1  0  0  0  0
 13 30  1  0  0  0  0
 15 16  1  0  0  0  0
 15 31  1  0  0  0  0
 16 32  1  0  0  0  0
M  END
>  <Line_Number>
300


> <IC50>
21130

$$$$
