145959872.0
 OpenBabel09092522113D

 25 25  0  0  0  0  0  0  0  0999 V2000
    1.1974   -0.5577   -0.3201 O   0  0  0  0  0  0  0  0  0  0  0  0
    2.3753   -0.2371   -0.1743 C   0  0  0  0  0  0  0  0  0  0  0  0
    3.0864    0.8056   -1.0058 C   0  0  0  0  0  0  0  0  0  0  0  0
    2.0862    1.5133   -1.9099 C   0  0  0  0  0  0  0  0  0  0  0  0
    2.7534    2.5120   -2.7531 N   0  0  0  0  0  0  0  0  0  0  0  0
    1.9246    3.2074   -3.6690 C   0  0  0  0  0  0  0  0  0  0  0  0
    0.6058    3.5662   -3.3470 C   0  0  0  0  0  0  0  0  0  0  0  0
   -0.1980    4.2851   -4.2371 C   0  0  0  0  0  0  0  0  0  0  0  0
    0.3131    4.6997   -5.4615 C   0  0  0  0  0  0  0  0  0  0  0  0
    1.6349    4.4074   -5.7884 C   0  0  0  0  0  0  0  0  0  0  0  0
    2.4346    3.6804   -4.8966 C   0  0  0  0  0  0  0  0  0  0  0  0
    4.2271    3.3155   -5.4206 Br  0  0  0  0  0  0  0  0  0  0  0  0
    3.1713   -0.8304    0.7728 N   0  0  0  0  0  0  0  0  0  0  0  0
    2.5863   -1.8834    1.5111 O   0  0  0  0  0  0  0  0  0  0  0  0
    3.8633    0.3104   -1.5990 H   0  0  0  0  0  0  0  0  0  0  0  0
    3.5729    1.5262   -0.3379 H   0  0  0  0  0  0  0  0  0  0  0  0
    1.3429    1.9927   -1.2638 H   0  0  0  0  0  0  0  0  0  0  0  0
    1.5708    0.7827   -2.5456 H   0  0  0  0  0  0  0  0  0  0  0  0
    3.5563    2.1332   -3.2595 H   0  0  0  0  0  0  0  0  0  0  0  0
    0.1696    3.2994   -2.3895 H   0  0  0  0  0  0  0  0  0  0  0  0
   -1.2216    4.5253   -3.9614 H   0  0  0  0  0  0  0  0  0  0  0  0
   -0.3140    5.2586   -6.1510 H   0  0  0  0  0  0  0  0  0  0  0  0
    2.0331    4.7507   -6.7401 H   0  0  0  0  0  0  0  0  0  0  0  0
    4.1777   -0.7256    0.8338 H   0  0  0  0  0  0  0  0  0  0  0  0
    1.6837   -1.9383    1.1257 H   0  0  0  0  0  0  0  0  0  0  0  0
  1  2  2  0  0  0  0
  2  3  1  0  0  0  0
  2 13  1  0  0  0  0
  3  4  1  0  0  0  0
  3 15  1  0  0  0  0
  3 16  1  0  0  0  0
  4  5  1  0  0  0  0
  4 17  1  0  0  0  0
  4 18  1  0  0  0  0
  5  6  1  0  0  0  0
  5 19  1  0  0  0  0
  6  7  1  0  0  0  0
  6 11  2  0  0  0  0
  7  8  2  0  0  0  0
  7 20  1  0  0  0  0
  8  9  1  0  0  0  0
  8 21  1  0  0  0  0
  9 10  2  0  0  0  0
  9 22  1  0  0  0  0
 10 11  1  0  0  0  0
 10 23  1  0  0  0  0
 11 12  1  0  0  0  0
 13 14  1  0  0  0  0
 13 24  1  0  0  0  0
 14 25  1  0  0  0  0
M  END
>  <Line_Number>
301


> <IC50>
7315

$$$$
