145991509.0
 OpenBabel09092522113D

 42 44  0  0  0  0  0  0  0  0999 V2000
    6.8069    0.4647   -2.0457 C   0  0  0  0  0  0  0  0  0  0  0  0
    5.6079    0.5298   -1.1385 C   0  0  0  0  0  0  0  0  0  0  0  0
    4.2609    0.6825   -1.7869 C   0  0  0  0  0  0  0  0  0  0  0  0
    5.7656    0.4099    0.1950 C   0  0  0  0  0  0  0  0  0  0  0  0
    4.6670    0.4298    1.2209 C   0  0  0  0  0  0  0  0  0  0  0  0
    5.1045    1.0445    2.4720 N   0  0  0  0  0  0  0  0  0  0  0  0
    5.0050    2.3862    2.7952 C   0  0  0  0  0  0  0  0  0  0  0  0
    4.5232    3.3126    1.9660 O   0  0  0  0  0  0  0  0  0  0  0  0
    5.4622    2.5124    4.0927 C   0  0  0  0  0  0  0  0  0  0  0  0
    5.5114    3.6697    4.8863 N   0  0  0  0  0  0  0  0  0  0  0  0
    5.8256    4.7013    4.2560 N   0  0  0  0  0  0  0  0  0  0  0  0
    5.8388    5.8470    5.0773 C   0  0  0  0  0  0  0  0  0  0  0  0
    6.2610    5.8302    6.4175 C   0  0  0  0  0  0  0  0  0  0  0  0
    6.2786    7.0019    7.1803 C   0  0  0  0  0  0  0  0  0  0  0  0
    5.8889    8.2099    6.6096 C   0  0  0  0  0  0  0  0  0  0  0  0
    5.4801    8.2474    5.2775 C   0  0  0  0  0  0  0  0  0  0  0  0
    5.4581    7.0739    4.5205 C   0  0  0  0  0  0  0  0  0  0  0  0
    5.8411    1.2328    4.5773 C   0  0  0  0  0  0  0  0  0  0  0  0
    6.3537    0.7534    5.8044 C   0  0  0  0  0  0  0  0  0  0  0  0
    6.6271   -0.6099    5.9555 C   0  0  0  0  0  0  0  0  0  0  0  0
    6.4043   -1.4953    4.9069 C   0  0  0  0  0  0  0  0  0  0  0  0
    5.9017   -1.0458    3.6830 C   0  0  0  0  0  0  0  0  0  0  0  0
    5.6217    0.3249    3.5407 C   0  0  0  0  0  0  0  0  0  0  0  0
    6.5279    0.5598   -3.0998 H   0  0  0  0  0  0  0  0  0  0  0  0
    7.3228   -0.4947   -1.9308 H   0  0  0  0  0  0  0  0  0  0  0  0
    7.5078    1.2743   -1.8174 H   0  0  0  0  0  0  0  0  0  0  0  0
    4.3351    0.7282   -2.8779 H   0  0  0  0  0  0  0  0  0  0  0  0
    3.7761    1.6064   -1.4546 H   0  0  0  0  0  0  0  0  0  0  0  0
    3.6187   -0.1688   -1.5400 H   0  0  0  0  0  0  0  0  0  0  0  0
    6.7745    0.2727    0.5879 H   0  0  0  0  0  0  0  0  0  0  0  0
    4.3461   -0.5928    1.4438 H   0  0  0  0  0  0  0  0  0  0  0  0
    3.7797    0.9736    0.8826 H   0  0  0  0  0  0  0  0  0  0  0  0
    4.4582    2.9632    1.0639 H   0  0  0  0  0  0  0  0  0  0  0  0
    6.5810    4.8956    6.8724 H   0  0  0  0  0  0  0  0  0  0  0  0
    6.6042    6.9657    8.2163 H   0  0  0  0  0  0  0  0  0  0  0  0
    5.9055    9.1214    7.2007 H   0  0  0  0  0  0  0  0  0  0  0  0
    5.1787    9.1905    4.8273 H   0  0  0  0  0  0  0  0  0  0  0  0
    5.1391    7.1090    3.4803 H   0  0  0  0  0  0  0  0  0  0  0  0
    6.5321    1.4420    6.6268 H   0  0  0  0  0  0  0  0  0  0  0  0
    7.0175   -0.9779    6.9013 H   0  0  0  0  0  0  0  0  0  0  0  0
    6.6225   -2.5517    5.0400 H   0  0  0  0  0  0  0  0  0  0  0  0
    5.7352   -1.7508    2.8748 H   0  0  0  0  0  0  0  0  0  0  0  0
  1  2  1  0  0  0  0
  1 24  1  0  0  0  0
  1 25  1  0  0  0  0
  1 26  1  0  0  0  0
  2  3  1  0  0  0  0
  2  4  2  0  0  0  0
  3 27  1  0  0  0  0
  3 28  1  0  0  0  0
  3 29  1  0  0  0  0
  4  5  1  0  0  0  0
  4 30  1  0  0  0  0
  5  6  1  0  0  0  0
  5 31  1  0  0  0  0
  5 32  1  0  0  0  0
  6  7  1  0  0  0  0
  6 23  1  0  0  0  0
  7  8  1  0  0  0  0
  7  9  2  0  0  0  0
  8 33  1  0  0  0  0
  9 10  1  0  0  0  0
  9 18  1  0  0  0  0
 10 11  2  3  0  0  0
 11 12  1  0  0  0  0
 12 13  1  0  0  0  0
 12 17  2  0  0  0  0
 13 14  2  0  0  0  0
 13 34  1  0  0  0  0
 14 15  1  0  0  0  0
 14 35  1  0  0  0  0
 15 16  2  0  0  0  0
 15 36  1  0  0  0  0
 16 17  1  0  0  0  0
 16 37  1  0  0  0  0
 17 38  1  0  0  0  0
 18 19  1  0  0  0  0
 18 23  2  0  0  0  0
 19 20  2  0  0  0  0
 19 39  1  0  0  0  0
 20 21  1  0  0  0  0
 20 40  1  0  0  0  0
 21 22  2  0  0  0  0
 21 41  1  0  0  0  0
 22 23  1  0  0  0  0
 22 42  1  0  0  0  0
M  END
>  <Line_Number>
325


> <IC50>
200000

$$$$
