172470549.0
 OpenBabel09092522113D

 31 31  0  0  1  0  0  0  0  0999 V2000
    1.1062    2.0107   -0.5652 C   0  0  0  0  0  0  0  0  0  0  0  0
    2.5195    1.8994   -0.3754 O   0  0  0  0  0  0  0  0  0  0  0  0
    3.0627    0.7641   -0.9103 C   0  0  0  0  0  0  0  0  0  0  0  0
    2.3993   -0.1555   -1.3751 O   0  0  0  0  0  0  0  0  0  0  0  0
    4.5884    0.8423   -0.9419 C   0  0  3  0  0  0  0  0  0  0  0  0
    5.1580   -0.4894   -1.4535 C   0  0  0  0  0  0  0  0  0  0  0  0
    5.2662   -1.8535   -0.3236 P   0  0  0  0  0  0  0  0  0  0  0  0
    5.9752   -3.0692   -0.8092 O   0  0  0  0  0  0  0  0  0  0  0  0
    6.0107   -1.2694    0.9728 O   0  0  0  0  0  0  0  0  0  0  0  0
    3.8402   -2.2276    0.2932 O   0  0  0  0  0  0  0  0  0  0  0  0
    5.1323    2.0235   -1.7755 C   0  0  0  0  0  0  0  0  0  0  0  0
    4.3173    2.8248   -2.6027 C   0  0  0  0  0  0  0  0  0  0  0  0
    4.8286    3.9386   -3.2846 C   0  0  0  0  0  0  0  0  0  0  0  0
    6.1766    4.2396   -3.1785 C   0  0  0  0  0  0  0  0  0  0  0  0
    6.7322    5.3178   -3.8094 O   0  0  0  0  0  0  0  0  0  0  0  0
    7.0084    3.4356   -2.4082 C   0  0  0  0  0  0  0  0  0  0  0  0
    8.3422    3.7229   -2.3311 O   0  0  0  0  0  0  0  0  0  0  0  0
    6.5026    2.3462   -1.7032 C   0  0  0  0  0  0  0  0  0  0  0  0
    0.7827    2.9848   -0.1867 H   0  0  0  0  0  0  0  0  0  0  0  0
    0.5841    1.2256   -0.0122 H   0  0  0  0  0  0  0  0  0  0  0  0
    0.8552    1.9653   -1.6317 H   0  0  0  0  0  0  0  0  0  0  0  0
    4.9061    0.9989    0.0974 H   0  0  0  0  0  0  0  0  0  0  0  0
    6.1983   -0.3425   -1.7635 H   0  0  0  0  0  0  0  0  0  0  0  0
    4.6269   -0.8133   -2.3561 H   0  0  0  0  0  0  0  0  0  0  0  0
    6.4597   -1.9757    1.4750 H   0  0  0  0  0  0  0  0  0  0  0  0
    3.8297   -3.1094    0.7165 H   0  0  0  0  0  0  0  0  0  0  0  0
    3.2569    2.6157   -2.7240 H   0  0  0  0  0  0  0  0  0  0  0  0
    4.1587    4.5494   -3.8817 H   0  0  0  0  0  0  0  0  0  0  0  0
    6.0169    5.8209   -4.2357 H   0  0  0  0  0  0  0  0  0  0  0  0
    8.4551    4.5106   -2.9008 H   0  0  0  0  0  0  0  0  0  0  0  0
    7.1878    1.7566   -1.0988 H   0  0  0  0  0  0  0  0  0  0  0  0
  1  2  1  0  0  0  0
  1 19  1  0  0  0  0
  1 20  1  0  0  0  0
  1 21  1  0  0  0  0
  2  3  1  0  0  0  0
  3  4  2  0  0  0  0
  3  5  1  0  0  0  0
  5  6  1  0  0  0  0
  5 11  1  0  0  0  0
  5 22  1  0  0  0  0
  6  7  1  0  0  0  0
  6 23  1  0  0  0  0
  6 24  1  0  0  0  0
  7  8  2  0  0  0  0
  7  9  1  0  0  0  0
  7 10  1  0  0  0  0
  9 25  1  0  0  0  0
 10 26  1  0  0  0  0
 11 12  1  0  0  0  0
 11 18  2  0  0  0  0
 12 13  2  0  0  0  0
 12 27  1  0  0  0  0
 13 14  1  0  0  0  0
 13 28  1  0  0  0  0
 14 15  1  0  0  0  0
 14 16  2  0  0  0  0
 15 29  1  0  0  0  0
 16 17  1  0  0  0  0
 16 18  1  0  0  0  0
 17 30  1  0  0  0  0
 18 31  1  0  0  0  0
M  END
>  <Line_Number>
335


> <IC50>
54700

$$$$
