5281605.0
 OpenBabel09092522103D

 30 32  0  0  0  0  0  0  0  0999 V2000
   -2.2432    2.0012    0.0077 O   0  0  0  0  0  0  0  0  0  0  0  0
   -1.9660    0.8111   -0.0161 C   0  0  0  0  0  0  0  0  0  0  0  0
   -3.0604   -0.1717   -0.0688 C   0  0  0  0  0  0  0  0  0  0  0  0
   -2.7813   -1.4744   -0.0638 C   0  0  0  0  0  0  0  0  0  0  0  0
   -3.8625   -2.4677   -0.0946 C   0  0  0  0  0  0  0  0  0  0  0  0
   -4.3745   -2.9256   -1.3146 C   0  0  0  0  0  0  0  0  0  0  0  0
   -5.3439   -3.9325   -1.3385 C   0  0  0  0  0  0  0  0  0  0  0  0
   -5.8165   -4.4775   -0.1451 C   0  0  0  0  0  0  0  0  0  0  0  0
   -5.3408   -3.9994    1.0745 C   0  0  0  0  0  0  0  0  0  0  0  0
   -4.3748   -2.9907    1.1002 C   0  0  0  0  0  0  0  0  0  0  0  0
   -1.5063   -2.0084   -0.0030 O   0  0  0  0  0  0  0  0  0  0  0  0
   -0.4406   -1.1355    0.0055 C   0  0  0  0  0  0  0  0  0  0  0  0
    0.8352   -1.7202    0.0144 C   0  0  0  0  0  0  0  0  0  0  0  0
    1.9561   -0.8995    0.0094 C   0  0  0  0  0  0  0  0  0  0  0  0
    3.2272   -1.4006    0.0064 O   0  0  0  0  0  0  0  0  0  0  0  0
    1.8085    0.4833    0.0041 C   0  0  0  0  0  0  0  0  0  0  0  0
    2.9126    1.2957   -0.0055 O   0  0  0  0  0  0  0  0  0  0  0  0
    0.5454    1.0705    0.0042 C   0  0  0  0  0  0  0  0  0  0  0  0
    0.4791    2.4349    0.0029 O   0  0  0  0  0  0  0  0  0  0  0  0
   -0.5926    0.2615    0.0008 C   0  0  0  0  0  0  0  0  0  0  0  0
   -4.0691    0.2270   -0.0966 H   0  0  0  0  0  0  0  0  0  0  0  0
   -4.0029   -2.5244   -2.2552 H   0  0  0  0  0  0  0  0  0  0  0  0
   -5.7160   -4.3059   -2.2895 H   0  0  0  0  0  0  0  0  0  0  0  0
   -6.5522   -5.2779   -0.1654 H   0  0  0  0  0  0  0  0  0  0  0  0
   -5.7098   -4.4222    2.0059 H   0  0  0  0  0  0  0  0  0  0  0  0
   -4.0099   -2.6337    2.0608 H   0  0  0  0  0  0  0  0  0  0  0  0
    0.9266   -2.8019    0.0198 H   0  0  0  0  0  0  0  0  0  0  0  0
    3.1791   -2.3729    0.0029 H   0  0  0  0  0  0  0  0  0  0  0  0
    3.6732    0.6787   -0.0198 H   0  0  0  0  0  0  0  0  0  0  0  0
    1.4046    2.7493    0.0133 H   0  0  0  0  0  0  0  0  0  0  0  0
  1  2  2  0  0  0  0
  2  3  1  0  0  0  0
  2 20  1  0  0  0  0
  3  4  2  0  0  0  0
  3 21  1  0  0  0  0
  4  5  1  0  0  0  0
  4 11  1  0  0  0  0
  5  6  1  0  0  0  0
  5 10  2  0  0  0  0
  6  7  2  0  0  0  0
  6 22  1  0  0  0  0
  7  8  1  0  0  0  0
  7 23  1  0  0  0  0
  8  9  2  0  0  0  0
  8 24  1  0  0  0  0
  9 10  1  0  0  0  0
  9 25  1  0  0  0  0
 10 26  1  0  0  0  0
 11 12  1  0  0  0  0
 12 13  1  0  0  0  0
 12 20  2  0  0  0  0
 13 14  2  0  0  0  0
 13 27  1  0  0  0  0
 14 15  1  0  0  0  0
 14 16  1  0  0  0  0
 15 28  1  0  0  0  0
 16 17  1  0  0  0  0
 16 18  2  0  0  0  0
 17 29  1  0  0  0  0
 18 19  1  0  0  0  0
 18 20  1  0  0  0  0
 19 30  1  0  0  0  0
M  END
>  <Line_Number>
37


> <IC50>
291000

$$$$
