49844561.0
 OpenBabel09092522103D

 38 39  0  0  0  0  0  0  0  0999 V2000
    0.9730   -0.1965    0.4838 C   0  0  0  0  0  0  0  0  0  0  0  0
    2.3214   -0.1760    0.0285 O   0  0  0  0  0  0  0  0  0  0  0  0
    2.9834    1.0203    0.1218 C   0  0  0  0  0  0  0  0  0  0  0  0
    2.6168    2.0111    1.0394 C   0  0  0  0  0  0  0  0  0  0  0  0
    3.3457    3.1959    1.1524 C   0  0  0  0  0  0  0  0  0  0  0  0
    4.4887    3.4107    0.3777 C   0  0  0  0  0  0  0  0  0  0  0  0
    5.2917    4.6911    0.4649 C   0  0  0  0  0  0  0  0  0  0  0  0
    5.3428    5.3175    1.8656 C   0  0  0  0  0  0  0  0  0  0  0  0
    6.1833    6.5679    1.9055 C   0  0  0  0  0  0  0  0  0  0  0  0
    7.5393    6.5047    2.2645 C   0  0  0  0  0  0  0  0  0  0  0  0
    8.3189    7.6643    2.3085 C   0  0  0  0  0  0  0  0  0  0  0  0
    7.7383    8.8842    1.9852 C   0  0  0  0  0  0  0  0  0  0  0  0
    8.4484   10.0530    2.0122 O   0  0  0  0  0  0  0  0  0  0  0  0
    6.3976    8.9510    1.6187 C   0  0  0  0  0  0  0  0  0  0  0  0
    5.8366   10.1534    1.2952 O   0  0  0  0  0  0  0  0  0  0  0  0
    5.6151    7.8070    1.5766 C   0  0  0  0  0  0  0  0  0  0  0  0
    4.8529    2.4202   -0.5449 C   0  0  0  0  0  0  0  0  0  0  0  0
    4.1101    1.2347   -0.6873 C   0  0  0  0  0  0  0  0  0  0  0  0
    4.6302    0.3785   -1.6259 O   0  0  0  0  0  0  0  0  0  0  0  0
    3.7032   -0.4573   -2.3085 C   0  0  0  0  0  0  0  0  0  0  0  0
    0.5393   -1.1608    0.2031 H   0  0  0  0  0  0  0  0  0  0  0  0
    0.3817    0.5903    0.0028 H   0  0  0  0  0  0  0  0  0  0  0  0
    0.9205   -0.1204    1.5746 H   0  0  0  0  0  0  0  0  0  0  0  0
    1.7712    1.8864    1.7074 H   0  0  0  0  0  0  0  0  0  0  0  0
    3.0023    3.9355    1.8692 H   0  0  0  0  0  0  0  0  0  0  0  0
    4.8692    5.4057   -0.2529 H   0  0  0  0  0  0  0  0  0  0  0  0
    6.3208    4.4879    0.1370 H   0  0  0  0  0  0  0  0  0  0  0  0
    5.7275    4.5902    2.5923 H   0  0  0  0  0  0  0  0  0  0  0  0
    4.3372    5.5829    2.2142 H   0  0  0  0  0  0  0  0  0  0  0  0
    7.9935    5.5488    2.5180 H   0  0  0  0  0  0  0  0  0  0  0  0
    9.3627    7.5914    2.5949 H   0  0  0  0  0  0  0  0  0  0  0  0
    9.3502    9.8482    2.3119 H   0  0  0  0  0  0  0  0  0  0  0  0
    6.5703   10.7938    1.3817 H   0  0  0  0  0  0  0  0  0  0  0  0
    4.5687    7.8859    1.2943 H   0  0  0  0  0  0  0  0  0  0  0  0
    5.7262    2.5635   -1.1803 H   0  0  0  0  0  0  0  0  0  0  0  0
    4.1817   -0.7947   -3.2335 H   0  0  0  0  0  0  0  0  0  0  0  0
    2.7908    0.0804   -2.5891 H   0  0  0  0  0  0  0  0  0  0  0  0
    3.4796   -1.3518   -1.7202 H   0  0  0  0  0  0  0  0  0  0  0  0
  1  2  1  0  0  0  0
  1 21  1  0  0  0  0
  1 22  1  0  0  0  0
  1 23  1  0  0  0  0
  2  3  1  0  0  0  0
  3  4  1  0  0  0  0
  3 18  2  0  0  0  0
  4  5  2  0  0  0  0
  4 24  1  0  0  0  0
  5  6  1  0  0  0  0
  5 25  1  0  0  0  0
  6  7  1  0  0  0  0
  6 17  2  0  0  0  0
  7  8  1  0  0  0  0
  7 26  1  0  0  0  0
  7 27  1  0  0  0  0
  8  9  1  0  0  0  0
  8 28  1  0  0  0  0
  8 29  1  0  0  0  0
  9 10  1  0  0  0  0
  9 16  2  0  0  0  0
 10 11  2  0  0  0  0
 10 30  1  0  0  0  0
 11 12  1  0  0  0  0
 11 31  1  0  0  0  0
 12 13  1  0  0  0  0
 12 14  2  0  0  0  0
 13 32  1  0  0  0  0
 14 15  1  0  0  0  0
 14 16  1  0  0  0  0
 15 33  1  0  0  0  0
 16 34  1  0  0  0  0
 17 18  1  0  0  0  0
 17 35  1  0  0  0  0
 18 19  1  0  0  0  0
 19 20  1  0  0  0  0
 20 36  1  0  0  0  0
 20 37  1  0  0  0  0
 20 38  1  0  0  0  0
M  END
>  <Line_Number>
3


> <IC50>
22700

$$$$
