5280445.0
 OpenBabel09092522103D

 31 33  0  0  0  0  0  0  0  0999 V2000
   -2.3951    1.6359    0.0723 O   0  0  0  0  0  0  0  0  0  0  0  0
   -1.8635    0.5340    0.0355 C   0  0  0  0  0  0  0  0  0  0  0  0
   -2.7206   -0.6582   -0.0207 C   0  0  0  0  0  0  0  0  0  0  0  0
   -2.1736   -1.8801   -0.0412 C   0  0  0  0  0  0  0  0  0  0  0  0
   -3.0054   -3.1004   -0.1458 C   0  0  0  0  0  0  0  0  0  0  0  0
   -4.2288   -3.0908   -0.8490 C   0  0  0  0  0  0  0  0  0  0  0  0
   -5.0061   -4.2462   -0.9800 C   0  0  0  0  0  0  0  0  0  0  0  0
   -4.5523   -5.4278   -0.4173 C   0  0  0  0  0  0  0  0  0  0  0  0
   -5.2566   -6.5945   -0.5254 O   0  0  0  0  0  0  0  0  0  0  0  0
   -3.3452   -5.4569    0.2749 C   0  0  0  0  0  0  0  0  0  0  0  0
   -2.9028   -6.6297    0.8181 O   0  0  0  0  0  0  0  0  0  0  0  0
   -2.5722   -4.3100    0.4175 C   0  0  0  0  0  0  0  0  0  0  0  0
   -0.8084   -2.1098    0.0299 O   0  0  0  0  0  0  0  0  0  0  0  0
    0.0408   -1.0278    0.0343 C   0  0  0  0  0  0  0  0  0  0  0  0
    1.4088   -1.3186    0.0320 C   0  0  0  0  0  0  0  0  0  0  0  0
    2.3249   -0.2724    0.0107 C   0  0  0  0  0  0  0  0  0  0  0  0
    3.6672   -0.4986   -0.0051 O   0  0  0  0  0  0  0  0  0  0  0  0
    1.8992    1.0512   -0.0010 C   0  0  0  0  0  0  0  0  0  0  0  0
    0.5335    1.3368    0.0092 C   0  0  0  0  0  0  0  0  0  0  0  0
    0.1331    2.6417   -0.0118 O   0  0  0  0  0  0  0  0  0  0  0  0
   -0.4048    0.2977    0.0290 C   0  0  0  0  0  0  0  0  0  0  0  0
   -3.7846   -0.4642   -0.0517 H   0  0  0  0  0  0  0  0  0  0  0  0
   -4.5913   -2.1804   -1.3221 H   0  0  0  0  0  0  0  0  0  0  0  0
   -5.9421   -4.1961   -1.5266 H   0  0  0  0  0  0  0  0  0  0  0  0
   -6.0635   -6.4124   -1.0381 H   0  0  0  0  0  0  0  0  0  0  0  0
   -3.5900   -7.2839    0.5798 H   0  0  0  0  0  0  0  0  0  0  0  0
   -1.6375   -4.3721    0.9685 H   0  0  0  0  0  0  0  0  0  0  0  0
    1.7361   -2.3537    0.0403 H   0  0  0  0  0  0  0  0  0  0  0  0
    3.8308   -1.4578   -0.0223 H   0  0  0  0  0  0  0  0  0  0  0  0
    2.6402    1.8448   -0.0229 H   0  0  0  0  0  0  0  0  0  0  0  0
    0.9024    3.2318   -0.0102 H   0  0  0  0  0  0  0  0  0  0  0  0
  1  2  2  0  0  0  0
  2  3  1  0  0  0  0
  2 21  1  0  0  0  0
  3  4  2  0  0  0  0
  3 22  1  0  0  0  0
  4  5  1  0  0  0  0
  4 13  1  0  0  0  0
  5  6  1  0  0  0  0
  5 12  2  0  0  0  0
  6  7  2  0  0  0  0
  6 23  1  0  0  0  0
  7  8  1  0  0  0  0
  7 24  1  0  0  0  0
  8  9  1  0  0  0  0
  8 10  2  0  0  0  0
  9 25  1  0  0  0  0
 10 11  1  0  0  0  0
 10 12  1  0  0  0  0
 11 26  1  0  0  0  0
 12 27  1  0  0  0  0
 13 14  1  0  0  0  0
 14 15  1  0  0  0  0
 14 21  2  0  0  0  0
 15 16  2  0  0  0  0
 15 28  1  0  0  0  0
 16 17  1  0  0  0  0
 16 18  1  0  0  0  0
 17 29  1  0  0  0  0
 18 19  2  0  0  0  0
 18 30  1  0  0  0  0
 19 20  1  0  0  0  0
 19 21  1  0  0  0  0
 20 31  1  0  0  0  0
M  END
>  <Line_Number>
40


> <IC50>
35400

$$$$
