88881.0
 OpenBabel09092522103D

 35 37  0  0  0  0  0  0  0  0999 V2000
    1.5310   -0.9336   -0.0740 C   0  0  0  0  0  0  0  0  0  0  0  0
    2.6083   -0.0127    0.0649 O   0  0  0  0  0  0  0  0  0  0  0  0
    3.2097    0.0511    1.2901 C   0  0  0  0  0  0  0  0  0  0  0  0
    2.8303   -0.6558    2.4260 C   0  0  0  0  0  0  0  0  0  0  0  0
    3.5027   -0.5293    3.6664 C   0  0  0  0  0  0  0  0  0  0  0  0
    2.8838   -1.3559    4.5589 O   0  0  0  0  0  0  0  0  0  0  0  0
    3.3299   -1.5495    5.8826 C   0  0  0  0  0  0  0  0  0  0  0  0
    4.6014    0.3470    3.7573 C   0  0  0  0  0  0  0  0  0  0  0  0
    5.4191    0.6426    4.9706 C   0  0  0  0  0  0  0  0  0  0  0  0
    5.1900    0.2459    6.1036 O   0  0  0  0  0  0  0  0  0  0  0  0
    6.6042    1.4956    4.8107 C   0  0  0  0  0  0  0  0  0  0  0  0
    6.8480    2.0591    3.6278 C   0  0  0  0  0  0  0  0  0  0  0  0
    8.0403    2.8885    3.4479 C   0  0  0  0  0  0  0  0  0  0  0  0
    9.2393    2.2959    3.0321 C   0  0  0  0  0  0  0  0  0  0  0  0
   10.4025    3.0592    2.9286 C   0  0  0  0  0  0  0  0  0  0  0  0
   10.3737    4.4182    3.2378 C   0  0  0  0  0  0  0  0  0  0  0  0
    9.1821    5.0167    3.6473 C   0  0  0  0  0  0  0  0  0  0  0  0
    8.0167    4.2545    3.7535 C   0  0  0  0  0  0  0  0  0  0  0  0
    6.0607    1.9076    2.5146 O   0  0  0  0  0  0  0  0  0  0  0  0
    4.9866    1.0448    2.5902 C   0  0  0  0  0  0  0  0  0  0  0  0
    4.2953    0.9055    1.3804 C   0  0  0  0  0  0  0  0  0  0  0  0
    1.1636   -0.8705   -1.1026 H   0  0  0  0  0  0  0  0  0  0  0  0
    0.7000   -0.6754    0.5912 H   0  0  0  0  0  0  0  0  0  0  0  0
    1.8687   -1.9616    0.0971 H   0  0  0  0  0  0  0  0  0  0  0  0
    1.9855   -1.3409    2.3901 H   0  0  0  0  0  0  0  0  0  0  0  0
    2.7101   -2.3372    6.3237 H   0  0  0  0  0  0  0  0  0  0  0  0
    3.1533   -0.6538    6.4825 H   0  0  0  0  0  0  0  0  0  0  0  0
    4.3602   -1.9137    5.9091 H   0  0  0  0  0  0  0  0  0  0  0  0
    7.2356    1.6334    5.6787 H   0  0  0  0  0  0  0  0  0  0  0  0
    9.2749    1.2340    2.7993 H   0  0  0  0  0  0  0  0  0  0  0  0
   11.3317    2.5913    2.6141 H   0  0  0  0  0  0  0  0  0  0  0  0
   11.2819    5.0108    3.1626 H   0  0  0  0  0  0  0  0  0  0  0  0
    9.1629    6.0758    3.8914 H   0  0  0  0  0  0  0  0  0  0  0  0
    7.0963    4.7301    4.0851 H   0  0  0  0  0  0  0  0  0  0  0  0
    4.6133    1.4670    0.5047 H   0  0  0  0  0  0  0  0  0  0  0  0
  1  2  1  0  0  0  0
  1 22  1  0  0  0  0
  1 23  1  0  0  0  0
  1 24  1  0  0  0  0
  2  3  1  0  0  0  0
  3  4  1  0  0  0  0
  3 21  2  0  0  0  0
  4  5  2  0  0  0  0
  4 25  1  0  0  0  0
  5  6  1  0  0  0  0
  5  8  1  0  0  0  0
  6  7  1  0  0  0  0
  7 26  1  0  0  0  0
  7 27  1  0  0  0  0
  7 28  1  0  0  0  0
  8  9  1  0  0  0  0
  8 20  2  0  0  0  0
  9 10  2  0  0  0  0
  9 11  1  0  0  0  0
 11 12  2  0  0  0  0
 11 29  1  0  0  0  0
 12 13  1  0  0  0  0
 12 19  1  0  0  0  0
 13 14  1  0  0  0  0
 13 18  2  0  0  0  0
 14 15  2  0  0  0  0
 14 30  1  0  0  0  0
 15 16  1  0  0  0  0
 15 31  1  0  0  0  0
 16 17  2  0  0  0  0
 16 32  1  0  0  0  0
 17 18  1  0  0  0  0
 17 33  1  0  0  0  0
 18 34  1  0  0  0  0
 19 20  1  0  0  0  0
 20 21  1  0  0  0  0
 21 35  1  0  0  0  0
M  END
>  <Line_Number>
43


> <IC50>
2185000

$$$$
