136419.0
 OpenBabel09092522103D

 35 37  0  0  0  0  0  0  0  0999 V2000
    0.6211   -0.1777   -0.2141 C   0  0  0  0  0  0  0  0  0  0  0  0
    1.9825   -0.5931   -0.1025 O   0  0  0  0  0  0  0  0  0  0  0  0
    2.7393   -0.4480   -1.2330 C   0  0  0  0  0  0  0  0  0  0  0  0
    2.2253   -0.1962   -2.4970 C   0  0  0  0  0  0  0  0  0  0  0  0
    3.0920    0.0778   -3.5500 C   0  0  0  0  0  0  0  0  0  0  0  0
    4.4766    0.1848   -3.3471 C   0  0  0  0  0  0  0  0  0  0  0  0
    5.2338    1.0699   -4.2843 C   0  0  0  0  0  0  0  0  0  0  0  0
    5.3649    2.3052   -3.7485 C   0  0  0  0  0  0  0  0  0  0  0  0
    4.8310    3.4482   -4.3321 O   0  0  0  0  0  0  0  0  0  0  0  0
    3.7530    3.1705   -5.1500 C   0  0  0  0  0  0  0  0  0  0  0  0
    2.5292    3.7997   -4.9271 C   0  0  0  0  0  0  0  0  0  0  0  0
    1.4098    3.3730   -5.6497 C   0  0  0  0  0  0  0  0  0  0  0  0
    0.1201    3.7812   -5.4391 O   0  0  0  0  0  0  0  0  0  0  0  0
   -0.1471    4.4668   -4.2201 C   0  0  0  0  0  0  0  0  0  0  0  0
    1.5542    2.4129   -6.6658 C   0  0  0  0  0  0  0  0  0  0  0  0
    2.7798    1.7759   -6.8795 C   0  0  0  0  0  0  0  0  0  0  0  0
    3.8502    2.1111   -6.0574 C   0  0  0  0  0  0  0  0  0  0  0  0
    4.8925    1.1132   -5.7487 C   0  0  0  0  0  0  0  0  0  0  0  0
    5.2985    0.3053   -6.5681 O   0  0  0  0  0  0  0  0  0  0  0  0
    4.9957   -0.2134   -2.1118 C   0  0  0  0  0  0  0  0  0  0  0  0
    4.1231   -0.5362   -1.0640 C   0  0  0  0  0  0  0  0  0  0  0  0
    0.1738   -0.2011    0.7836 H   0  0  0  0  0  0  0  0  0  0  0  0
    0.0579   -0.8686   -0.8498 H   0  0  0  0  0  0  0  0  0  0  0  0
    0.5381    0.8509   -0.5876 H   0  0  0  0  0  0  0  0  0  0  0  0
    1.1604   -0.1372   -2.6953 H   0  0  0  0  0  0  0  0  0  0  0  0
    2.6300    0.3310   -4.4982 H   0  0  0  0  0  0  0  0  0  0  0  0
    5.4773    2.5109   -2.6882 H   0  0  0  0  0  0  0  0  0  0  0  0
    2.4574    4.5325   -4.1311 H   0  0  0  0  0  0  0  0  0  0  0  0
   -1.2236    4.6603   -4.1754 H   0  0  0  0  0  0  0  0  0  0  0  0
    0.3646    5.4330   -4.1955 H   0  0  0  0  0  0  0  0  0  0  0  0
    0.1162    3.8564   -3.3482 H   0  0  0  0  0  0  0  0  0  0  0  0
    0.6795    2.0940   -7.2310 H   0  0  0  0  0  0  0  0  0  0  0  0
    2.8530    0.9399   -7.5710 H   0  0  0  0  0  0  0  0  0  0  0  0
    6.0662   -0.1793   -1.9266 H   0  0  0  0  0  0  0  0  0  0  0  0
    4.5325   -0.7761   -0.0856 H   0  0  0  0  0  0  0  0  0  0  0  0
  1  2  1  0  0  0  0
  1 22  1  0  0  0  0
  1 23  1  0  0  0  0
  1 24  1  0  0  0  0
  2  3  1  0  0  0  0
  3  4  1  0  0  0  0
  3 21  2  0  0  0  0
  4  5  2  0  0  0  0
  4 25  1  0  0  0  0
  5  6  1  0  0  0  0
  5 26  1  0  0  0  0
  6  7  1  0  0  0  0
  6 20  2  0  0  0  0
  7  8  2  0  0  0  0
  7 18  1  0  0  0  0
  8  9  1  0  0  0  0
  8 27  1  0  0  0  0
  9 10  1  0  0  0  0
 10 11  1  0  0  0  0
 10 17  2  0  0  0  0
 11 12  2  0  0  0  0
 11 28  1  0  0  0  0
 12 13  1  0  0  0  0
 12 15  1  0  0  0  0
 13 14  1  0  0  0  0
 14 29  1  0  0  0  0
 14 30  1  0  0  0  0
 14 31  1  0  0  0  0
 15 16  2  0  0  0  0
 15 32  1  0  0  0  0
 16 17  1  0  0  0  0
 16 33  1  0  0  0  0
 17 18  1  0  0  0  0
 18 19  2  0  0  0  0
 20 21  1  0  0  0  0
 20 34  1  0  0  0  0
 21 35  1  0  0  0  0
M  END
>  <Line_Number>
46


> <IC50>
3527000

$$$$
