169676.0
 OpenBabel09092522103D

 36 37  0  0  0  0  0  0  0  0999 V2000
    2.3461    0.8900   -0.5969 C   0  0  0  0  0  0  0  0  0  0  0  0
    1.9678   -0.3336    0.0181 O   0  0  0  0  0  0  0  0  0  0  0  0
    2.8470   -1.3765   -0.0566 C   0  0  0  0  0  0  0  0  0  0  0  0
    4.0968   -1.3668   -0.6695 C   0  0  0  0  0  0  0  0  0  0  0  0
    4.8893   -2.5291   -0.6697 C   0  0  0  0  0  0  0  0  0  0  0  0
    6.0823   -2.4877   -1.3443 O   0  0  0  0  0  0  0  0  0  0  0  0
    4.4600   -3.7178   -0.0442 C   0  0  0  0  0  0  0  0  0  0  0  0
    5.3470   -4.9389   -0.0466 C   0  0  0  0  0  0  0  0  0  0  0  0
    6.5661   -4.8259    0.0266 O   0  0  0  0  0  0  0  0  0  0  0  0
    4.6921   -6.3121   -0.0433 C   0  0  0  0  0  0  0  0  0  0  0  0
    5.5208   -7.3938   -0.7298 C   0  0  0  0  0  0  0  0  0  0  0  0
    4.7949   -8.7222   -0.6852 C   0  0  0  0  0  0  0  0  0  0  0  0
    3.8692   -9.0568   -1.6832 C   0  0  0  0  0  0  0  0  0  0  0  0
    3.1922  -10.2770   -1.6443 C   0  0  0  0  0  0  0  0  0  0  0  0
    3.4229  -11.1720   -0.6018 C   0  0  0  0  0  0  0  0  0  0  0  0
    4.3253  -10.8406    0.4079 C   0  0  0  0  0  0  0  0  0  0  0  0
    5.0032   -9.6202    0.3717 C   0  0  0  0  0  0  0  0  0  0  0  0
    3.1986   -3.6995    0.5716 C   0  0  0  0  0  0  0  0  0  0  0  0
    2.6219   -4.7458    1.2388 O   0  0  0  0  0  0  0  0  0  0  0  0
    2.4041   -2.5481    0.5516 C   0  0  0  0  0  0  0  0  0  0  0  0
    1.5209    1.5969   -0.4652 H   0  0  0  0  0  0  0  0  0  0  0  0
    2.5042    0.7597   -1.6722 H   0  0  0  0  0  0  0  0  0  0  0  0
    3.2315    1.3154   -0.1139 H   0  0  0  0  0  0  0  0  0  0  0  0
    4.4650   -0.4724   -1.1595 H   0  0  0  0  0  0  0  0  0  0  0  0
    6.3190   -1.5719   -1.5624 H   0  0  0  0  0  0  0  0  0  0  0  0
    3.7109   -6.2521   -0.5249 H   0  0  0  0  0  0  0  0  0  0  0  0
    4.5585   -6.6008    1.0053 H   0  0  0  0  0  0  0  0  0  0  0  0
    6.5015   -7.4978   -0.2484 H   0  0  0  0  0  0  0  0  0  0  0  0
    5.7260   -7.1192   -1.7716 H   0  0  0  0  0  0  0  0  0  0  0  0
    3.6713   -8.3676   -2.5009 H   0  0  0  0  0  0  0  0  0  0  0  0
    2.4833  -10.5304   -2.4283 H   0  0  0  0  0  0  0  0  0  0  0  0
    2.9044  -12.1269   -0.5779 H   0  0  0  0  0  0  0  0  0  0  0  0
    4.5000  -11.5367    1.2264 H   0  0  0  0  0  0  0  0  0  0  0  0
    5.6993   -9.3778    1.1716 H   0  0  0  0  0  0  0  0  0  0  0  0
    3.2987   -5.2551    1.7105 H   0  0  0  0  0  0  0  0  0  0  0  0
    1.4279   -2.5636    1.0326 H   0  0  0  0  0  0  0  0  0  0  0  0
  1  2  1  0  0  0  0
  1 21  1  0  0  0  0
  1 22  1  0  0  0  0
  1 23  1  0  0  0  0
  2  3  1  0  0  0  0
  3  4  1  0  0  0  0
  3 20  2  0  0  0  0
  4  5  2  0  0  0  0
  4 24  1  0  0  0  0
  5  6  1  0  0  0  0
  5  7  1  0  0  0  0
  6 25  1  0  0  0  0
  7  8  1  0  0  0  0
  7 18  2  0  0  0  0
  8  9  2  0  0  0  0
  8 10  1  0  0  0  0
 10 11  1  0  0  0  0
 10 26  1  0  0  0  0
 10 27  1  0  0  0  0
 11 12  1  0  0  0  0
 11 28  1  0  0  0  0
 11 29  1  0  0  0  0
 12 13  1  0  0  0  0
 12 17  2  0  0  0  0
 13 14  2  0  0  0  0
 13 30  1  0  0  0  0
 14 15  1  0  0  0  0
 14 31  1  0  0  0  0
 15 16  2  0  0  0  0
 15 32  1  0  0  0  0
 16 17  1  0  0  0  0
 16 33  1  0  0  0  0
 17 34  1  0  0  0  0
 18 19  1  0  0  0  0
 18 20  1  0  0  0  0
 19 35  1  0  0  0  0
 20 36  1  0  0  0  0
M  END
>  <Line_Number>
48


> <IC50>
978000

$$$$
