10955673.0
 OpenBabel09092522103D

 30 32  0  0  1  0  0  0  0  0999 V2000
    1.0137    0.1222   -0.0493 O   0  0  0  0  0  0  0  0  0  0  0  0
    2.3757    0.0318   -0.0636 C   0  0  0  0  0  0  0  0  0  0  0  0
    3.0200   -1.1993   -0.0649 C   0  0  0  0  0  0  0  0  0  0  0  0
    4.4162   -1.2321   -0.0824 C   0  0  0  0  0  0  0  0  0  0  0  0
    5.0685   -2.4390   -0.0838 O   0  0  0  0  0  0  0  0  0  0  0  0
    5.1682   -0.0498   -0.0993 C   0  0  0  0  0  0  0  0  0  0  0  0
    4.4961    1.1775   -0.0968 C   0  0  0  0  0  0  0  0  0  0  0  0
    3.1005    1.2178   -0.0780 C   0  0  0  0  0  0  0  0  0  0  0  0
    5.1217    2.3930   -0.1096 O   0  0  0  0  0  0  0  0  0  0  0  0
    6.5608    2.4293   -0.0882 C   0  0  3  0  0  0  0  0  0  0  0  0
    6.9856    3.2497    1.1179 C   0  0  0  0  0  0  0  0  0  0  0  0
    6.6208    2.8594    2.4179 C   0  0  0  0  0  0  0  0  0  0  0  0
    7.0023    3.6204    3.5226 C   0  0  0  0  0  0  0  0  0  0  0  0
    7.7552    4.7785    3.3423 C   0  0  0  0  0  0  0  0  0  0  0  0
    8.1371    5.1698    2.0603 C   0  0  0  0  0  0  0  0  0  0  0  0
    7.7578    4.4093    0.9532 C   0  0  0  0  0  0  0  0  0  0  0  0
    7.2700    1.1025   -0.1233 C   0  0  0  0  0  0  0  0  0  0  0  0
    6.6258   -0.0668   -0.1227 C   0  0  0  0  0  0  0  0  0  0  0  0
    0.6339   -0.7709   -0.0537 H   0  0  0  0  0  0  0  0  0  0  0  0
    2.4443   -2.1182   -0.0537 H   0  0  0  0  0  0  0  0  0  0  0  0
    4.4149   -3.1566   -0.0721 H   0  0  0  0  0  0  0  0  0  0  0  0
    2.5834    2.1733   -0.0738 H   0  0  0  0  0  0  0  0  0  0  0  0
    6.8463    2.9678   -1.0010 H   0  0  0  0  0  0  0  0  0  0  0  0
    6.0298    1.9580    2.5703 H   0  0  0  0  0  0  0  0  0  0  0  0
    6.7066    3.3107    4.5213 H   0  0  0  0  0  0  0  0  0  0  0  0
    8.0433    5.3772    4.2020 H   0  0  0  0  0  0  0  0  0  0  0  0
    8.7276    6.0715    1.9212 H   0  0  0  0  0  0  0  0  0  0  0  0
    8.0630    4.7313   -0.0397 H   0  0  0  0  0  0  0  0  0  0  0  0
    8.3556    1.1184   -0.1398 H   0  0  0  0  0  0  0  0  0  0  0  0
    7.1513   -1.0149   -0.1336 H   0  0  0  0  0  0  0  0  0  0  0  0
  1  2  1  0  0  0  0
  1 19  1  0  0  0  0
  2  3  1  0  0  0  0
  2  8  2  0  0  0  0
  3  4  2  0  0  0  0
  3 20  1  0  0  0  0
  4  5  1  0  0  0  0
  4  6  1  0  0  0  0
  5 21  1  0  0  0  0
  6  7  2  0  0  0  0
  6 18  1  0  0  0  0
  7  8  1  0  0  0  0
  7  9  1  0  0  0  0
  8 22  1  0  0  0  0
  9 10  1  0  0  0  0
 10 11  1  0  0  0  0
 10 17  1  0  0  0  0
 10 23  1  0  0  0  0
 11 12  1  0  0  0  0
 11 16  2  0  0  0  0
 12 13  2  0  0  0  0
 12 24  1  0  0  0  0
 13 14  1  0  0  0  0
 13 25  1  0  0  0  0
 14 15  2  0  0  0  0
 14 26  1  0  0  0  0
 15 16  1  0  0  0  0
 15 27  1  0  0  0  0
 16 28  1  0  0  0  0
 17 18  2  0  0  0  0
 17 29  1  0  0  0  0
 18 30  1  0  0  0  0
M  END
>  <Line_Number>
50


> <IC50>
33200

$$$$
