5356121.0
 OpenBabel09092522103D

 37 38  0  0  0  0  0  0  0  0999 V2000
    1.0108   -0.0024    0.1448 C   0  0  0  0  0  0  0  0  0  0  0  0
    2.4308    0.0437    0.1238 O   0  0  0  0  0  0  0  0  0  0  0  0
    3.0202    1.2761    0.1208 C   0  0  0  0  0  0  0  0  0  0  0  0
    2.3758    2.5010    0.1481 C   0  0  0  0  0  0  0  0  0  0  0  0
    3.1303    3.6834    0.1196 C   0  0  0  0  0  0  0  0  0  0  0  0
    2.4401    4.8714    0.0951 O   0  0  0  0  0  0  0  0  0  0  0  0
    4.5476    3.6757    0.0831 C   0  0  0  0  0  0  0  0  0  0  0  0
    5.2479    4.9885   -0.0335 C   0  0  0  0  0  0  0  0  0  0  0  0
    6.0875    5.1634   -0.9144 O   0  0  0  0  0  0  0  0  0  0  0  0
    4.8877    6.0967    0.9038 C   0  0  0  0  0  0  0  0  0  0  0  0
    5.5555    7.2613    0.8348 C   0  0  0  0  0  0  0  0  0  0  0  0
    5.2651    8.4017    1.7032 C   0  0  0  0  0  0  0  0  0  0  0  0
    5.8384    8.4735    2.9756 C   0  0  0  0  0  0  0  0  0  0  0  0
    5.6033    9.5779    3.7970 C   0  0  0  0  0  0  0  0  0  0  0  0
    4.7903   10.6189    3.3523 C   0  0  0  0  0  0  0  0  0  0  0  0
    4.2096   10.5549    2.0851 C   0  0  0  0  0  0  0  0  0  0  0  0
    4.4458    9.4513    1.2607 C   0  0  0  0  0  0  0  0  0  0  0  0
    5.1962    2.4298    0.0617 C   0  0  0  0  0  0  0  0  0  0  0  0
    6.5140    2.0657    0.0459 O   0  0  0  0  0  0  0  0  0  0  0  0
    7.5767    2.9924   -0.0274 C   0  0  0  0  0  0  0  0  0  0  0  0
    4.4121    1.2552    0.0803 C   0  0  0  0  0  0  0  0  0  0  0  0
    0.7103   -1.0545    0.1319 H   0  0  0  0  0  0  0  0  0  0  0  0
    0.5860    0.4767   -0.7435 H   0  0  0  0  0  0  0  0  0  0  0  0
    0.6176    0.4463    1.0627 H   0  0  0  0  0  0  0  0  0  0  0  0
    1.2934    2.5555    0.1719 H   0  0  0  0  0  0  0  0  0  0  0  0
    1.4831    4.7009    0.0880 H   0  0  0  0  0  0  0  0  0  0  0  0
    4.0741    5.9523    1.6045 H   0  0  0  0  0  0  0  0  0  0  0  0
    6.3702    7.4056    0.1282 H   0  0  0  0  0  0  0  0  0  0  0  0
    6.4866    7.6747    3.3282 H   0  0  0  0  0  0  0  0  0  0  0  0
    6.0628    9.6287    4.7810 H   0  0  0  0  0  0  0  0  0  0  0  0
    4.6140   11.4821    3.9893 H   0  0  0  0  0  0  0  0  0  0  0  0
    3.5832   11.3715    1.7357 H   0  0  0  0  0  0  0  0  0  0  0  0
    3.9991    9.4210    0.2700 H   0  0  0  0  0  0  0  0  0  0  0  0
    8.5040    2.4163    0.0771 H   0  0  0  0  0  0  0  0  0  0  0  0
    7.5486    3.7102    0.7945 H   0  0  0  0  0  0  0  0  0  0  0  0
    7.6245    3.4597   -1.0122 H   0  0  0  0  0  0  0  0  0  0  0  0
    4.9153    0.2874    0.0556 H   0  0  0  0  0  0  0  0  0  0  0  0
  1  2  1  0  0  0  0
  1 22  1  0  0  0  0
  1 23  1  0  0  0  0
  1 24  1  0  0  0  0
  2  3  1  0  0  0  0
  3  4  1  0  0  0  0
  3 21  2  0  0  0  0
  4  5  2  0  0  0  0
  4 25  1  0  0  0  0
  5  6  1  0  0  0  0
  5  7  1  0  0  0  0
  6 26  1  0  0  0  0
  7  8  1  0  0  0  0
  7 18  2  0  0  0  0
  8  9  2  0  0  0  0
  8 10  1  0  0  0  0
 10 11  2  0  0  0  0
 10 27  1  0  0  0  0
 11 12  1  0  0  0  0
 11 28  1  0  0  0  0
 12 13  1  0  0  0  0
 12 17  2  0  0  0  0
 13 14  2  0  0  0  0
 13 29  1  0  0  0  0
 14 15  1  0  0  0  0
 14 30  1  0  0  0  0
 15 16  2  0  0  0  0
 15 31  1  0  0  0  0
 16 17  1  0  0  0  0
 16 32  1  0  0  0  0
 17 33  1  0  0  0  0
 18 19  1  0  0  0  0
 18 21  1  0  0  0  0
 19 20  1  0  0  0  0
 20 34  1  0  0  0  0
 20 35  1  0  0  0  0
 20 36  1  0  0  0  0
 21 37  1  0  0  0  0
M  END
>  <Line_Number>
51


> <IC50>
1220000

$$$$
