5281607.0
 OpenBabel09092522103D

 29 31  0  0  0  0  0  0  0  0999 V2000
   -2.4096    1.6269   -0.0090 O   0  0  0  0  0  0  0  0  0  0  0  0
   -1.8743    0.5276   -0.0356 C   0  0  0  0  0  0  0  0  0  0  0  0
   -2.7255   -0.6722   -0.0843 C   0  0  0  0  0  0  0  0  0  0  0  0
   -2.1570   -1.8826   -0.0722 C   0  0  0  0  0  0  0  0  0  0  0  0
   -2.9723   -3.0974   -0.1098 C   0  0  0  0  0  0  0  0  0  0  0  0
   -3.3657   -3.6516   -1.3342 C   0  0  0  0  0  0  0  0  0  0  0  0
   -4.0977   -4.8411   -1.3657 C   0  0  0  0  0  0  0  0  0  0  0  0
   -4.4457   -5.4783   -0.1752 C   0  0  0  0  0  0  0  0  0  0  0  0
   -4.0824   -4.9170    1.0484 C   0  0  0  0  0  0  0  0  0  0  0  0
   -3.3511   -3.7276    1.0823 C   0  0  0  0  0  0  0  0  0  0  0  0
   -0.7974   -2.1129   -0.0129 O   0  0  0  0  0  0  0  0  0  0  0  0
    0.0466   -1.0252   -0.0045 C   0  0  0  0  0  0  0  0  0  0  0  0
    1.4153   -1.3120    0.0097 C   0  0  0  0  0  0  0  0  0  0  0  0
    2.3274   -0.2639    0.0067 C   0  0  0  0  0  0  0  0  0  0  0  0
    3.6726   -0.4860    0.0072 O   0  0  0  0  0  0  0  0  0  0  0  0
    1.8967    1.0581   -0.0028 C   0  0  0  0  0  0  0  0  0  0  0  0
    0.5284    1.3394   -0.0115 C   0  0  0  0  0  0  0  0  0  0  0  0
    0.1286    2.6447   -0.0257 O   0  0  0  0  0  0  0  0  0  0  0  0
   -0.4090    0.2975   -0.0136 C   0  0  0  0  0  0  0  0  0  0  0  0
   -3.7965   -0.5139   -0.1242 H   0  0  0  0  0  0  0  0  0  0  0  0
   -3.0955   -3.1682   -2.2704 H   0  0  0  0  0  0  0  0  0  0  0  0
   -4.3886   -5.2754   -2.3189 H   0  0  0  0  0  0  0  0  0  0  0  0
   -4.9997   -6.4135   -0.2008 H   0  0  0  0  0  0  0  0  0  0  0  0
   -4.3607   -5.4098    1.9765 H   0  0  0  0  0  0  0  0  0  0  0  0
   -3.0714   -3.3012    2.0427 H   0  0  0  0  0  0  0  0  0  0  0  0
    1.7455   -2.3465    0.0191 H   0  0  0  0  0  0  0  0  0  0  0  0
    3.8396   -1.4433   -0.0165 H   0  0  0  0  0  0  0  0  0  0  0  0
    2.6360    1.8534   -0.0077 H   0  0  0  0  0  0  0  0  0  0  0  0
    0.8988    3.2343   -0.0075 H   0  0  0  0  0  0  0  0  0  0  0  0
  1  2  2  0  0  0  0
  2  3  1  0  0  0  0
  2 19  1  0  0  0  0
  3  4  2  0  0  0  0
  3 20  1  0  0  0  0
  4  5  1  0  0  0  0
  4 11  1  0  0  0  0
  5  6  1  0  0  0  0
  5 10  2  0  0  0  0
  6  7  2  0  0  0  0
  6 21  1  0  0  0  0
  7  8  1  0  0  0  0
  7 22  1  0  0  0  0
  8  9  2  0  0  0  0
  8 23  1  0  0  0  0
  9 10  1  0  0  0  0
  9 24  1  0  0  0  0
 10 25  1  0  0  0  0
 11 12  1  0  0  0  0
 12 13  1  0  0  0  0
 12 19  2  0  0  0  0
 13 14  2  0  0  0  0
 13 26  1  0  0  0  0
 14 15  1  0  0  0  0
 14 16  1  0  0  0  0
 15 27  1  0  0  0  0
 16 17  2  0  0  0  0
 16 28  1  0  0  0  0
 17 18  1  0  0  0  0
 17 19  1  0  0  0  0
 18 29  1  0  0  0  0
M  END
>  <Line_Number>
52


> <IC50>
302000

$$$$
