60164496.0
 OpenBabel09092522103D

 48 50  0  0  0  0  0  0  0  0999 V2000
    2.9835    1.8519   -0.7981 C   0  0  0  0  0  0  0  0  0  0  0  0
    3.0573    0.4955   -0.3684 O   0  0  0  0  0  0  0  0  0  0  0  0
    3.5589   -0.3669   -1.3043 C   0  0  0  0  0  0  0  0  0  0  0  0
    4.5500   -0.0445   -2.2336 C   0  0  0  0  0  0  0  0  0  0  0  0
    4.9535   -0.9884   -3.1811 C   0  0  0  0  0  0  0  0  0  0  0  0
    4.3801   -2.2658   -3.2123 C   0  0  0  0  0  0  0  0  0  0  0  0
    4.7089   -3.2017   -4.3078 C   0  0  0  0  0  0  0  0  0  0  0  0
    4.6854   -4.5368   -4.1811 C   0  0  0  0  0  0  0  0  0  0  0  0
    4.8845   -5.3682   -5.3947 C   0  0  0  0  0  0  0  0  0  0  0  0
    5.8463   -4.7096   -6.3482 C   0  0  0  0  0  0  0  0  0  0  0  0
    6.7323   -5.3774   -7.2136 C   0  0  0  0  0  0  0  0  0  0  0  0
    6.8260   -6.7488   -7.2276 O   0  0  0  0  0  0  0  0  0  0  0  0
    7.1278   -7.3932   -5.9904 C   0  0  0  0  0  0  0  0  0  0  0  0
    7.4448   -4.6437   -8.2095 C   0  0  0  0  0  0  0  0  0  0  0  0
    8.3306   -5.1788   -9.1076 O   0  0  0  0  0  0  0  0  0  0  0  0
    8.8119   -6.5027   -8.9796 C   0  0  0  0  0  0  0  0  0  0  0  0
    7.2346   -3.2397   -8.3432 C   0  0  0  0  0  0  0  0  0  0  0  0
    7.8540   -2.3899   -9.2288 O   0  0  0  0  0  0  0  0  0  0  0  0
    8.7829   -2.8550  -10.1881 C   0  0  0  0  0  0  0  0  0  0  0  0
    6.3334   -2.5880   -7.4807 C   0  0  0  0  0  0  0  0  0  0  0  0
    6.0368   -1.2414   -7.5198 O   0  0  0  0  0  0  0  0  0  0  0  0
    5.7942   -0.7020   -8.8199 C   0  0  0  0  0  0  0  0  0  0  0  0
    5.7182   -3.3107   -6.4534 C   0  0  0  0  0  0  0  0  0  0  0  0
    4.9605   -2.5956   -5.5344 O   0  0  0  0  0  0  0  0  0  0  0  0
    3.4292   -2.5935   -2.2362 C   0  0  0  0  0  0  0  0  0  0  0  0
    3.0287   -1.6555   -1.2826 C   0  0  0  0  0  0  0  0  0  0  0  0
    2.3729    2.3979   -0.0724 H   0  0  0  0  0  0  0  0  0  0  0  0
    2.4982    1.9376   -1.7763 H   0  0  0  0  0  0  0  0  0  0  0  0
    3.9757    2.3126   -0.8115 H   0  0  0  0  0  0  0  0  0  0  0  0
    5.0192    0.9329   -2.2435 H   0  0  0  0  0  0  0  0  0  0  0  0
    5.7142   -0.7086   -3.9102 H   0  0  0  0  0  0  0  0  0  0  0  0
    4.5168   -5.0289   -3.2241 H   0  0  0  0  0  0  0  0  0  0  0  0
    5.1827   -6.3576   -5.0647 H   0  0  0  0  0  0  0  0  0  0  0  0
    3.9151   -5.4874   -5.8983 H   0  0  0  0  0  0  0  0  0  0  0  0
    7.9252   -8.1229   -6.1584 H   0  0  0  0  0  0  0  0  0  0  0  0
    6.2503   -7.9663   -5.6722 H   0  0  0  0  0  0  0  0  0  0  0  0
    7.4521   -6.7094   -5.1978 H   0  0  0  0  0  0  0  0  0  0  0  0
    9.6123   -6.6291   -9.7154 H   0  0  0  0  0  0  0  0  0  0  0  0
    8.0335   -7.2273   -9.2339 H   0  0  0  0  0  0  0  0  0  0  0  0
    9.2494   -6.6858   -7.9939 H   0  0  0  0  0  0  0  0  0  0  0  0
    9.0973   -1.9906  -10.7829 H   0  0  0  0  0  0  0  0  0  0  0  0
    8.3243   -3.5660  -10.8818 H   0  0  0  0  0  0  0  0  0  0  0  0
    9.6804   -3.2550   -9.7075 H   0  0  0  0  0  0  0  0  0  0  0  0
    5.0345    0.0810   -8.7263 H   0  0  0  0  0  0  0  0  0  0  0  0
    5.4151   -1.4423   -9.5346 H   0  0  0  0  0  0  0  0  0  0  0  0
    6.7042   -0.2247   -9.1977 H   0  0  0  0  0  0  0  0  0  0  0  0
    2.9549   -3.5713   -2.2248 H   0  0  0  0  0  0  0  0  0  0  0  0
    2.2715   -1.9175   -0.5508 H   0  0  0  0  0  0  0  0  0  0  0  0
  1  2  1  0  0  0  0
  1 27  1  0  0  0  0
  1 28  1  0  0  0  0
  1 29  1  0  0  0  0
  2  3  1  0  0  0  0
  3  4  1  0  0  0  0
  3 26  2  0  0  0  0
  4  5  2  0  0  0  0
  4 30  1  0  0  0  0
  5  6  1  0  0  0  0
  5 31  1  0  0  0  0
  6  7  1  0  0  0  0
  6 25  2  0  0  0  0
  7  8  2  0  0  0  0
  7 24  1  0  0  0  0
  8  9  1  0  0  0  0
  8 32  1  0  0  0  0
  9 10  1  0  0  0  0
  9 33  1  0  0  0  0
  9 34  1  0  0  0  0
 10 11  1  0  0  0  0
 10 23  2  0  0  0  0
 11 12  1  0  0  0  0
 11 14  2  0  0  0  0
 12 13  1  0  0  0  0
 13 35  1  0  0  0  0
 13 36  1  0  0  0  0
 13 37  1  0  0  0  0
 14 15  1  0  0  0  0
 14 17  1  0  0  0  0
 15 16  1  0  0  0  0
 16 38  1  0  0  0  0
 16 39  1  0  0  0  0
 16 40  1  0  0  0  0
 17 18  1  0  0  0  0
 17 20  2  0  0  0  0
 18 19  1  0  0  0  0
 19 41  1  0  0  0  0
 19 42  1  0  0  0  0
 19 43  1  0  0  0  0
 20 21  1  0  0  0  0
 20 23  1  0  0  0  0
 21 22  1  0  0  0  0
 22 44  1  0  0  0  0
 22 45  1  0  0  0  0
 22 46  1  0  0  0  0
 23 24  1  0  0  0  0
 25 26  1  0  0  0  0
 25 47  1  0  0  0  0
 26 48  1  0  0  0  0
M  END
>  <Line_Number>
56


> <IC50>
3791000

$$$$
