49844403.0
 OpenBabel09092522103D

 39 40  0  0  0  0  0  0  0  0999 V2000
    1.0620   -0.0050    0.0569 C   0  0  0  0  0  0  0  0  0  0  0  0
    2.4754    0.1364   -0.0503 O   0  0  0  0  0  0  0  0  0  0  0  0
    3.1409   -0.8855   -0.6731 C   0  0  0  0  0  0  0  0  0  0  0  0
    2.5168   -1.7276   -1.6006 C   0  0  0  0  0  0  0  0  0  0  0  0
    3.2252   -2.7405   -2.2485 C   0  0  0  0  0  0  0  0  0  0  0  0
    4.5905   -2.9180   -2.0230 C   0  0  0  0  0  0  0  0  0  0  0  0
    5.3758   -4.0330   -2.6816 C   0  0  0  0  0  0  0  0  0  0  0  0
    4.9012   -4.4040   -4.0944 C   0  0  0  0  0  0  0  0  0  0  0  0
    5.7240   -5.5101   -4.7046 C   0  0  0  0  0  0  0  0  0  0  0  0
    6.8518   -5.2036   -5.4843 C   0  0  0  0  0  0  0  0  0  0  0  0
    7.6263   -6.2187   -6.0601 C   0  0  0  0  0  0  0  0  0  0  0  0
    7.2783   -7.5471   -5.8449 C   0  0  0  0  0  0  0  0  0  0  0  0
    7.9916   -8.5798   -6.3860 O   0  0  0  0  0  0  0  0  0  0  0  0
    6.1743   -7.8611   -5.0639 C   0  0  0  0  0  0  0  0  0  0  0  0
    5.8311   -9.1678   -4.8374 O   0  0  0  0  0  0  0  0  0  0  0  0
    5.3987   -6.8532   -4.5010 C   0  0  0  0  0  0  0  0  0  0  0  0
    4.3073   -7.1981   -3.7526 O   0  0  0  0  0  0  0  0  0  0  0  0
    5.2202   -2.0658   -1.1021 C   0  0  0  0  0  0  0  0  0  0  0  0
    4.5123   -1.0592   -0.4219 C   0  0  0  0  0  0  0  0  0  0  0  0
    5.3009   -0.3178    0.4205 O   0  0  0  0  0  0  0  0  0  0  0  0
    4.6724    0.2173    1.5790 C   0  0  0  0  0  0  0  0  0  0  0  0
    0.6957    0.7733    0.7327 H   0  0  0  0  0  0  0  0  0  0  0  0
    0.7915   -0.9758    0.4867 H   0  0  0  0  0  0  0  0  0  0  0  0
    0.5761    0.1470   -0.9122 H   0  0  0  0  0  0  0  0  0  0  0  0
    1.4691   -1.6149   -1.8601 H   0  0  0  0  0  0  0  0  0  0  0  0
    2.6778   -3.3796   -2.9356 H   0  0  0  0  0  0  0  0  0  0  0  0
    5.3302   -4.9107   -2.0245 H   0  0  0  0  0  0  0  0  0  0  0  0
    6.4320   -3.7363   -2.7369 H   0  0  0  0  0  0  0  0  0  0  0  0
    4.9340   -3.5209   -4.7460 H   0  0  0  0  0  0  0  0  0  0  0  0
    3.8530   -4.7230   -4.0904 H   0  0  0  0  0  0  0  0  0  0  0  0
    7.1298   -4.1642   -5.6525 H   0  0  0  0  0  0  0  0  0  0  0  0
    8.4871   -5.9493   -6.6628 H   0  0  0  0  0  0  0  0  0  0  0  0
    8.6845   -8.2008   -6.9545 H   0  0  0  0  0  0  0  0  0  0  0  0
    6.5298   -9.6785   -5.2961 H   0  0  0  0  0  0  0  0  0  0  0  0
    4.2814   -8.1758   -3.7939 H   0  0  0  0  0  0  0  0  0  0  0  0
    6.2812   -2.1870   -0.8898 H   0  0  0  0  0  0  0  0  0  0  0  0
    5.4616    0.4779    2.2918 H   0  0  0  0  0  0  0  0  0  0  0  0
    4.0187   -0.5143    2.0666 H   0  0  0  0  0  0  0  0  0  0  0  0
    4.1391    1.1426    1.3438 H   0  0  0  0  0  0  0  0  0  0  0  0
  1  2  1  0  0  0  0
  1 22  1  0  0  0  0
  1 23  1  0  0  0  0
  1 24  1  0  0  0  0
  2  3  1  0  0  0  0
  3  4  1  0  0  0  0
  3 19  2  0  0  0  0
  4  5  2  0  0  0  0
  4 25  1  0  0  0  0
  5  6  1  0  0  0  0
  5 26  1  0  0  0  0
  6  7  1  0  0  0  0
  6 18  2  0  0  0  0
  7  8  1  0  0  0  0
  7 27  1  0  0  0  0
  7 28  1  0  0  0  0
  8  9  1  0  0  0  0
  8 29  1  0  0  0  0
  8 30  1  0  0  0  0
  9 10  1  0  0  0  0
  9 16  2  0  0  0  0
 10 11  2  0  0  0  0
 10 31  1  0  0  0  0
 11 12  1  0  0  0  0
 11 32  1  0  0  0  0
 12 13  1  0  0  0  0
 12 14  2  0  0  0  0
 13 33  1  0  0  0  0
 14 15  1  0  0  0  0
 14 16  1  0  0  0  0
 15 34  1  0  0  0  0
 16 17  1  0  0  0  0
 17 35  1  0  0  0  0
 18 19  1  0  0  0  0
 18 36  1  0  0  0  0
 19 20  1  0  0  0  0
 20 21  1  0  0  0  0
 21 37  1  0  0  0  0
 21 38  1  0  0  0  0
 21 39  1  0  0  0  0
M  END
>  <Line_Number>
5


> <IC50>
71000

$$$$
