72707668.0
 OpenBabel09092522103D

 24 24  0  0  1  0  0  0  0  0999 V2000
    2.6307    0.7115   -1.0070 O   0  0  0  0  0  0  0  0  0  0  0  0
    2.2388   -0.0026   -0.0844 C   0  0  0  0  0  0  0  0  0  0  0  0
    3.0173   -0.1536    1.2096 C   0  0  0  0  0  0  0  0  0  0  0  0
    2.1122   -0.2157    2.4406 C   0  0  3  0  0  0  0  0  0  0  0  0
    1.2542   -1.3622    2.3582 O   0  0  0  0  0  0  0  0  0  0  0  0
    2.8992   -0.2475    3.7390 C   0  0  0  0  0  0  0  0  0  0  0  0
    3.2242    0.9625    4.3787 C   0  0  0  0  0  0  0  0  0  0  0  0
    3.9383    0.9650    5.5802 C   0  0  0  0  0  0  0  0  0  0  0  0
    4.3344   -0.2395    6.1462 C   0  0  0  0  0  0  0  0  0  0  0  0
    5.0110   -0.2374    7.3019 F   0  0  0  0  0  0  0  0  0  0  0  0
    4.0379   -1.4463    5.5310 C   0  0  0  0  0  0  0  0  0  0  0  0
    3.3276   -1.4510    4.3282 C   0  0  0  0  0  0  0  0  0  0  0  0
    1.1257   -0.7953   -0.2057 N   0  0  0  0  0  0  0  0  0  0  0  0
    0.3561   -0.6085   -1.3764 O   0  0  0  0  0  0  0  0  0  0  0  0
    3.6913    0.7099    1.2897 H   0  0  0  0  0  0  0  0  0  0  0  0
    3.6359   -1.0546    1.1231 H   0  0  0  0  0  0  0  0  0  0  0  0
    1.4418    0.6531    2.4515 H   0  0  0  0  0  0  0  0  0  0  0  0
    1.8169   -2.1519    2.2711 H   0  0  0  0  0  0  0  0  0  0  0  0
    2.9146    1.9154    3.9520 H   0  0  0  0  0  0  0  0  0  0  0  0
    4.1818    1.8968    6.0807 H   0  0  0  0  0  0  0  0  0  0  0  0
    4.3527   -2.3768    5.9918 H   0  0  0  0  0  0  0  0  0  0  0  0
    3.1051   -2.4135    3.8769 H   0  0  0  0  0  0  0  0  0  0  0  0
    0.6191   -1.1209    0.6172 H   0  0  0  0  0  0  0  0  0  0  0  0
    0.8827    0.0573   -1.8707 H   0  0  0  0  0  0  0  0  0  0  0  0
  1  2  2  0  0  0  0
  2  3  1  0  0  0  0
  2 13  1  0  0  0  0
  3  4  1  0  0  0  0
  3 15  1  0  0  0  0
  3 16  1  0  0  0  0
  4  5  1  0  0  0  0
  4  6  1  0  0  0  0
  4 17  1  0  0  0  0
  5 18  1  0  0  0  0
  6  7  1  0  0  0  0
  6 12  2  0  0  0  0
  7  8  2  0  0  0  0
  7 19  1  0  0  0  0
  8  9  1  0  0  0  0
  8 20  1  0  0  0  0
  9 10  1  0  0  0  0
  9 11  2  0  0  0  0
 11 12  1  0  0  0  0
 11 21  1  0  0  0  0
 12 22  1  0  0  0  0
 13 14  1  0  0  0  0
 13 23  1  0  0  0  0
 14 24  1  0  0  0  0
M  END
>  <Line_Number>
61


> <IC50>
8010

$$$$
