72707673.0
 OpenBabel09092522103D

 28 28  0  0  1  0  0  0  0  0999 V2000
    1.0219    0.3750   -0.8970 C   0  0  0  0  0  0  0  0  0  0  0  0
    2.2921    0.0627   -0.3260 O   0  0  0  0  0  0  0  0  0  0  0  0
    2.9496   -1.0079   -0.8809 C   0  0  0  0  0  0  0  0  0  0  0  0
    2.6999   -1.4781   -2.1793 C   0  0  0  0  0  0  0  0  0  0  0  0
    3.4204   -2.5561   -2.6940 C   0  0  0  0  0  0  0  0  0  0  0  0
    4.3949   -3.1575   -1.9151 C   0  0  0  0  0  0  0  0  0  0  0  0
    5.0880   -4.1919   -2.4080 F   0  0  0  0  0  0  0  0  0  0  0  0
    4.6694   -2.6937   -0.6350 C   0  0  0  0  0  0  0  0  0  0  0  0
    3.9545   -1.6069   -0.0948 C   0  0  0  0  0  0  0  0  0  0  0  0
    4.3338   -1.1300    1.2981 C   0  0  3  0  0  0  0  0  0  0  0  0
    4.7919    0.2277    1.2212 O   0  0  0  0  0  0  0  0  0  0  0  0
    3.2413   -1.1855    2.3624 C   0  0  0  0  0  0  0  0  0  0  0  0
    2.7642   -2.5772    2.6840 C   0  0  0  0  0  0  0  0  0  0  0  0
    3.2114   -3.6120    2.1999 O   0  0  0  0  0  0  0  0  0  0  0  0
    1.7548   -2.5889    3.6186 N   0  0  0  0  0  0  0  0  0  0  0  0
    1.1918   -3.8436    3.9294 O   0  0  0  0  0  0  0  0  0  0  0  0
    0.5212    1.0871   -0.2346 H   0  0  0  0  0  0  0  0  0  0  0  0
    0.3858   -0.5146   -0.9699 H   0  0  0  0  0  0  0  0  0  0  0  0
    1.1411    0.8559   -1.8734 H   0  0  0  0  0  0  0  0  0  0  0  0
    1.9628   -1.0132   -2.8252 H   0  0  0  0  0  0  0  0  0  0  0  0
    3.2321   -2.9235   -3.6976 H   0  0  0  0  0  0  0  0  0  0  0  0
    5.4457   -3.1931   -0.0608 H   0  0  0  0  0  0  0  0  0  0  0  0
    5.1923   -1.7104    1.6580 H   0  0  0  0  0  0  0  0  0  0  0  0
    4.1606    0.7008    0.6473 H   0  0  0  0  0  0  0  0  0  0  0  0
    2.3819   -0.5637    2.0909 H   0  0  0  0  0  0  0  0  0  0  0  0
    3.6414   -0.7560    3.2920 H   0  0  0  0  0  0  0  0  0  0  0  0
    1.2629   -1.7659    3.9489 H   0  0  0  0  0  0  0  0  0  0  0  0
    1.7071   -4.4540    3.3568 H   0  0  0  0  0  0  0  0  0  0  0  0
  1  2  1  0  0  0  0
  1 17  1  0  0  0  0
  1 18  1  0  0  0  0
  1 19  1  0  0  0  0
  2  3  1  0  0  0  0
  3  4  1  0  0  0  0
  3  9  2  0  0  0  0
  4  5  2  0  0  0  0
  4 20  1  0  0  0  0
  5  6  1  0  0  0  0
  5 21  1  0  0  0  0
  6  7  1  0  0  0  0
  6  8  2  0  0  0  0
  8  9  1  0  0  0  0
  8 22  1  0  0  0  0
  9 10  1  0  0  0  0
 10 11  1  0  0  0  0
 10 12  1  0  0  0  0
 10 23  1  0  0  0  0
 11 24  1  0  0  0  0
 12 13  1  0  0  0  0
 12 25  1  0  0  0  0
 12 26  1  0  0  0  0
 13 14  2  0  0  0  0
 13 15  1  0  0  0  0
 15 16  1  0  0  0  0
 15 27  1  0  0  0  0
 16 28  1  0  0  0  0
M  END
>  <Line_Number>
62


> <IC50>
11000

$$$$
