72707598.0
 OpenBabel09092522103D

 28 28  0  0  1  0  0  0  0  0999 V2000
    1.0112    0.5921   -0.5156 C   0  0  0  0  0  0  0  0  0  0  0  0
    2.2730    0.0248   -0.1723 O   0  0  0  0  0  0  0  0  0  0  0  0
    2.9633   -0.5801   -1.1930 C   0  0  0  0  0  0  0  0  0  0  0  0
    2.7319   -0.3211   -2.5512 C   0  0  0  0  0  0  0  0  0  0  0  0
    3.5054   -0.9388   -3.5352 C   0  0  0  0  0  0  0  0  0  0  0  0
    4.5255   -1.8095   -3.1729 C   0  0  0  0  0  0  0  0  0  0  0  0
    4.7666   -2.0675   -1.8245 C   0  0  0  0  0  0  0  0  0  0  0  0
    3.9888   -1.4677   -0.8152 C   0  0  0  0  0  0  0  0  0  0  0  0
    4.2974   -1.8259    0.6295 C   0  0  3  0  0  0  0  0  0  0  0  0
    4.6538   -0.6414    1.3564 O   0  0  0  0  0  0  0  0  0  0  0  0
    3.1685   -2.5158    1.3975 C   0  0  0  0  0  0  0  0  0  0  0  0
    2.7797   -3.8637    0.8506 C   0  0  0  0  0  0  0  0  0  0  0  0
    3.3397   -4.4481   -0.0747 O   0  0  0  0  0  0  0  0  0  0  0  0
    1.7142   -4.4252    1.5146 N   0  0  0  0  0  0  0  0  0  0  0  0
    1.2636   -5.6815    1.0583 O   0  0  0  0  0  0  0  0  0  0  0  0
    0.5286    0.9191    0.4102 H   0  0  0  0  0  0  0  0  0  0  0  0
    0.3605   -0.1514   -0.9879 H   0  0  0  0  0  0  0  0  0  0  0  0
    1.1325    1.4744   -1.1516 H   0  0  0  0  0  0  0  0  0  0  0  0
    1.9638    0.3703   -2.8807 H   0  0  0  0  0  0  0  0  0  0  0  0
    3.3147   -0.7345   -4.5852 H   0  0  0  0  0  0  0  0  0  0  0  0
    5.1315   -2.2920   -3.9356 H   0  0  0  0  0  0  0  0  0  0  0  0
    5.5643   -2.7604   -1.5614 H   0  0  0  0  0  0  0  0  0  0  0  0
    5.1825   -2.4718    0.6643 H   0  0  0  0  0  0  0  0  0  0  0  0
    4.0526    0.0619    1.0458 H   0  0  0  0  0  0  0  0  0  0  0  0
    2.2777   -1.8821    1.4503 H   0  0  0  0  0  0  0  0  0  0  0  0
    3.4956   -2.6639    2.4359 H   0  0  0  0  0  0  0  0  0  0  0  0
    1.2132   -3.9971    2.2852 H   0  0  0  0  0  0  0  0  0  0  0  0
    1.8518   -5.8455    0.2884 H   0  0  0  0  0  0  0  0  0  0  0  0
  1  2  1  0  0  0  0
  1 16  1  0  0  0  0
  1 17  1  0  0  0  0
  1 18  1  0  0  0  0
  2  3  1  0  0  0  0
  3  4  1  0  0  0  0
  3  8  2  0  0  0  0
  4  5  2  0  0  0  0
  4 19  1  0  0  0  0
  5  6  1  0  0  0  0
  5 20  1  0  0  0  0
  6  7  2  0  0  0  0
  6 21  1  0  0  0  0
  7  8  1  0  0  0  0
  7 22  1  0  0  0  0
  8  9  1  0  0  0  0
  9 10  1  0  0  0  0
  9 11  1  0  0  0  0
  9 23  1  0  0  0  0
 10 24  1  0  0  0  0
 11 12  1  0  0  0  0
 11 25  1  0  0  0  0
 11 26  1  0  0  0  0
 12 13  2  0  0  0  0
 12 14  1  0  0  0  0
 14 15  1  0  0  0  0
 14 27  1  0  0  0  0
 15 28  1  0  0  0  0
M  END
>  <Line_Number>
63


> <IC50>
38500

$$$$
