72707664.0
 OpenBabel09092522103D

 27 27  0  0  1  0  0  0  0  0999 V2000
    4.3785    1.2999    0.9001 O   0  0  0  0  0  0  0  0  0  0  0  0
    4.2450    0.0845    0.9984 C   0  0  0  0  0  0  0  0  0  0  0  0
    2.9547   -0.6148    1.3309 C   0  0  0  0  0  0  0  0  0  0  0  0
    2.1060    0.1860    2.3148 C   0  0  3  0  0  0  0  0  0  0  0  0
    0.8343   -0.4563    2.4524 O   0  0  0  0  0  0  0  0  0  0  0  0
    2.7360    0.3376    3.6870 C   0  0  0  0  0  0  0  0  0  0  0  0
    3.0224    1.6220    4.1742 C   0  0  0  0  0  0  0  0  0  0  0  0
    3.6140    1.8011    5.4252 C   0  0  0  0  0  0  0  0  0  0  0  0
    3.9235    0.6969    6.2163 C   0  0  0  0  0  0  0  0  0  0  0  0
    3.6427   -0.5985    5.7624 C   0  0  0  0  0  0  0  0  0  0  0  0
    3.9523   -1.8061    6.6127 C   0  0  0  0  0  0  0  0  0  0  0  0
    4.4658   -1.5035    7.8368 F   0  0  0  0  0  0  0  0  0  0  0  0
    2.8479   -2.5686    6.8482 F   0  0  0  0  0  0  0  0  0  0  0  0
    4.8554   -2.6374    6.0216 F   0  0  0  0  0  0  0  0  0  0  0  0
    3.0560   -0.7672    4.4935 C   0  0  0  0  0  0  0  0  0  0  0  0
    5.2843   -0.7859    0.7441 N   0  0  0  0  0  0  0  0  0  0  0  0
    6.5009   -0.2113    0.3241 O   0  0  0  0  0  0  0  0  0  0  0  0
    3.1452   -1.6261    1.7087 H   0  0  0  0  0  0  0  0  0  0  0  0
    2.3999   -0.7431    0.3919 H   0  0  0  0  0  0  0  0  0  0  0  0
    1.8961    1.1767    1.8952 H   0  0  0  0  0  0  0  0  0  0  0  0
    0.9789   -1.3628    2.7683 H   0  0  0  0  0  0  0  0  0  0  0  0
    2.7904    2.5011    3.5740 H   0  0  0  0  0  0  0  0  0  0  0  0
    3.8309    2.8054    5.7821 H   0  0  0  0  0  0  0  0  0  0  0  0
    4.3813    0.8541    7.1920 H   0  0  0  0  0  0  0  0  0  0  0  0
    2.8455   -1.7778    4.1476 H   0  0  0  0  0  0  0  0  0  0  0  0
    5.2001   -1.7927    0.6610 H   0  0  0  0  0  0  0  0  0  0  0  0
    6.2853    0.7452    0.2860 H   0  0  0  0  0  0  0  0  0  0  0  0
  1  2  2  0  0  0  0
  2  3  1  0  0  0  0
  2 16  1  0  0  0  0
  3  4  1  0  0  0  0
  3 18  1  0  0  0  0
  3 19  1  0  0  0  0
  4  5  1  0  0  0  0
  4  6  1  0  0  0  0
  4 20  1  0  0  0  0
  5 21  1  0  0  0  0
  6  7  1  0  0  0  0
  6 15  2  0  0  0  0
  7  8  2  0  0  0  0
  7 22  1  0  0  0  0
  8  9  1  0  0  0  0
  8 23  1  0  0  0  0
  9 10  2  0  0  0  0
  9 24  1  0  0  0  0
 10 11  1  0  0  0  0
 10 15  1  0  0  0  0
 11 12  1  0  0  0  0
 11 13  1  0  0  0  0
 11 14  1  0  0  0  0
 15 25  1  0  0  0  0
 16 17  1  0  0  0  0
 16 26  1  0  0  0  0
 17 27  1  0  0  0  0
M  END
>  <Line_Number>
67


> <IC50>
4015

$$$$
