72707603.0
 OpenBabel09092522103D

 24 24  0  0  1  0  0  0  0  0999 V2000
    2.6364   -0.1340   -1.1285 O   0  0  0  0  0  0  0  0  0  0  0  0
    2.2417   -0.1094    0.0319 C   0  0  0  0  0  0  0  0  0  0  0  0
    3.0002    0.6050    1.1381 C   0  0  0  0  0  0  0  0  0  0  0  0
    2.0737    1.2787    2.1522 C   0  0  3  0  0  0  0  0  0  0  0  0
    1.2568    0.2856    2.7917 O   0  0  0  0  0  0  0  0  0  0  0  0
    2.8121    2.0544    3.2243 C   0  0  0  0  0  0  0  0  0  0  0  0
    2.5750    3.4334    3.3890 C   0  0  0  0  0  0  0  0  0  0  0  0
    3.2087    4.1608    4.4002 C   0  0  0  0  0  0  0  0  0  0  0  0
    4.0802    3.5195    5.2789 C   0  0  0  0  0  0  0  0  0  0  0  0
    4.3209    2.1592    5.1205 C   0  0  0  0  0  0  0  0  0  0  0  0
    5.1520    1.5353    5.9652 F   0  0  0  0  0  0  0  0  0  0  0  0
    3.7049    1.4284    4.1094 C   0  0  0  0  0  0  0  0  0  0  0  0
    1.1310   -0.8055    0.4428 N   0  0  0  0  0  0  0  0  0  0  0  0
    0.3307   -1.4303   -0.5355 O   0  0  0  0  0  0  0  0  0  0  0  0
    3.6392    1.3639    0.6693 H   0  0  0  0  0  0  0  0  0  0  0  0
    3.6490   -0.1351    1.6181 H   0  0  0  0  0  0  0  0  0  0  0  0
    1.3836    1.9459    1.6201 H   0  0  0  0  0  0  0  0  0  0  0  0
    1.8113   -0.2010    3.4267 H   0  0  0  0  0  0  0  0  0  0  0  0
    1.8797    3.9522    2.7301 H   0  0  0  0  0  0  0  0  0  0  0  0
    3.0043    5.2243    4.5170 H   0  0  0  0  0  0  0  0  0  0  0  0
    4.5657    4.0618    6.0798 H   0  0  0  0  0  0  0  0  0  0  0  0
    3.9245    0.3668    4.0419 H   0  0  0  0  0  0  0  0  0  0  0  0
    0.6946   -0.6333    1.3510 H   0  0  0  0  0  0  0  0  0  0  0  0
    0.6641   -1.0416   -1.3697 H   0  0  0  0  0  0  0  0  0  0  0  0
  1  2  2  0  0  0  0
  2  3  1  0  0  0  0
  2 13  1  0  0  0  0
  3  4  1  0  0  0  0
  3 15  1  0  0  0  0
  3 16  1  0  0  0  0
  4  5  1  0  0  0  0
  4  6  1  0  0  0  0
  4 17  1  0  0  0  0
  5 18  1  0  0  0  0
  6  7  1  0  0  0  0
  6 12  2  0  0  0  0
  7  8  2  0  0  0  0
  7 19  1  0  0  0  0
  8  9  1  0  0  0  0
  8 20  1  0  0  0  0
  9 10  2  0  0  0  0
  9 21  1  0  0  0  0
 10 11  1  0  0  0  0
 10 12  1  0  0  0  0
 12 22  1  0  0  0  0
 13 14  1  0  0  0  0
 13 23  1  0  0  0  0
 14 24  1  0  0  0  0
M  END
>  <Line_Number>
71


> <IC50>
8645

$$$$
