72707666.0
 OpenBabel09092522103D

 38 39  0  0  1  0  0  0  0  0999 V2000
    3.7280   -2.6643   -0.5904 O   0  0  0  0  0  0  0  0  0  0  0  0
    3.9827   -1.5852   -0.0541 C   0  0  0  0  0  0  0  0  0  0  0  0
    3.0163   -0.8346    0.8328 C   0  0  0  0  0  0  0  0  0  0  0  0
    2.0110   -1.7688    1.5099 C   0  0  3  0  0  0  0  0  0  0  0  0
    1.1785   -2.3754    0.5179 O   0  0  0  0  0  0  0  0  0  0  0  0
    2.6400   -2.7900    2.4424 C   0  0  0  0  0  0  0  0  0  0  0  0
    3.4024   -2.3773    3.5487 C   0  0  0  0  0  0  0  0  0  0  0  0
    3.9462   -3.3146    4.4349 C   0  0  0  0  0  0  0  0  0  0  0  0
    3.7204   -4.6758    4.2417 C   0  0  0  0  0  0  0  0  0  0  0  0
    4.2120   -5.5137    5.2090 O   0  0  0  0  0  0  0  0  0  0  0  0
    3.5395   -6.7737    5.2865 C   0  0  0  0  0  0  0  0  0  0  0  0
    3.7359   -7.3896    6.6463 C   0  0  0  0  0  0  0  0  0  0  0  0
    2.6337   -7.5954    7.4901 C   0  0  0  0  0  0  0  0  0  0  0  0
    2.7981   -8.2104    8.7320 C   0  0  0  0  0  0  0  0  0  0  0  0
    4.0643   -8.6192    9.1404 C   0  0  0  0  0  0  0  0  0  0  0  0
    5.1681   -8.4101    8.3144 C   0  0  0  0  0  0  0  0  0  0  0  0
    5.0070   -7.7964    7.0723 C   0  0  0  0  0  0  0  0  0  0  0  0
    3.0111   -5.0975    3.1189 C   0  0  0  0  0  0  0  0  0  0  0  0
    2.4598   -4.1646    2.2419 C   0  0  0  0  0  0  0  0  0  0  0  0
    5.1618   -0.9154   -0.2825 N   0  0  0  0  0  0  0  0  0  0  0  0
    6.1335   -1.6170   -1.0313 O   0  0  0  0  0  0  0  0  0  0  0  0
    2.4807   -0.1296    0.1849 H   0  0  0  0  0  0  0  0  0  0  0  0
    3.5732   -0.2566    1.5789 H   0  0  0  0  0  0  0  0  0  0  0  0
    1.3324   -1.1605    2.1206 H   0  0  0  0  0  0  0  0  0  0  0  0
    1.7790   -2.8533   -0.0916 H   0  0  0  0  0  0  0  0  0  0  0  0
    3.5624   -1.3207    3.7516 H   0  0  0  0  0  0  0  0  0  0  0  0
    4.5184   -2.9800    5.2972 H   0  0  0  0  0  0  0  0  0  0  0  0
    3.9399   -7.4545    4.5255 H   0  0  0  0  0  0  0  0  0  0  0  0
    2.4609   -6.6529    5.1191 H   0  0  0  0  0  0  0  0  0  0  0  0
    1.6378   -7.2831    7.1829 H   0  0  0  0  0  0  0  0  0  0  0  0
    1.9369   -8.3702    9.3734 H   0  0  0  0  0  0  0  0  0  0  0  0
    4.1922   -9.1005   10.1060 H   0  0  0  0  0  0  0  0  0  0  0  0
    6.1557   -8.7286    8.6370 H   0  0  0  0  0  0  0  0  0  0  0  0
    5.8726   -7.6385    6.4331 H   0  0  0  0  0  0  0  0  0  0  0  0
    2.8507   -6.1487    2.9017 H   0  0  0  0  0  0  0  0  0  0  0  0
    1.8716   -4.5346    1.4051 H   0  0  0  0  0  0  0  0  0  0  0  0
    5.5051   -0.1716    0.3152 H   0  0  0  0  0  0  0  0  0  0  0  0
    5.6877   -2.4743   -1.2119 H   0  0  0  0  0  0  0  0  0  0  0  0
  1  2  2  0  0  0  0
  2  3  1  0  0  0  0
  2 20  1  0  0  0  0
  3  4  1  0  0  0  0
  3 22  1  0  0  0  0
  3 23  1  0  0  0  0
  4  5  1  0  0  0  0
  4  6  1  0  0  0  0
  4 24  1  0  0  0  0
  5 25  1  0  0  0  0
  6  7  1  0  0  0  0
  6 19  2  0  0  0  0
  7  8  2  0  0  0  0
  7 26  1  0  0  0  0
  8  9  1  0  0  0  0
  8 27  1  0  0  0  0
  9 10  1  0  0  0  0
  9 18  2  0  0  0  0
 10 11  1  0  0  0  0
 11 12  1  0  0  0  0
 11 28  1  0  0  0  0
 11 29  1  0  0  0  0
 12 13  1  0  0  0  0
 12 17  2  0  0  0  0
 13 14  2  0  0  0  0
 13 30  1  0  0  0  0
 14 15  1  0  0  0  0
 14 31  1  0  0  0  0
 15 16  2  0  0  0  0
 15 32  1  0  0  0  0
 16 17  1  0  0  0  0
 16 33  1  0  0  0  0
 17 34  1  0  0  0  0
 18 19  1  0  0  0  0
 18 35  1  0  0  0  0
 19 36  1  0  0  0  0
 20 21  1  0  0  0  0
 20 37  1  0  0  0  0
 21 38  1  0  0  0  0
M  END
>  <Line_Number>
73


> <IC50>
61500

$$$$
