72707670.0
 OpenBabel09092522103D

 32 32  0  0  1  0  0  0  0  0999 V2000
    1.3121    0.5481    0.3840 C   0  0  0  0  0  0  0  0  0  0  0  0
    2.5455   -0.0992   -0.0453 N   0  0  0  0  0  0  0  0  0  0  0  0
    3.2215   -0.9553    0.9243 C   0  0  0  0  0  0  0  0  0  0  0  0
    3.2358    0.3542   -1.1668 C   0  0  0  0  0  0  0  0  0  0  0  0
    2.8150    1.4631   -1.9176 C   0  0  0  0  0  0  0  0  0  0  0  0
    3.4979    1.8939   -3.0676 C   0  0  0  0  0  0  0  0  0  0  0  0
    4.6299    1.2144   -3.5256 C   0  0  0  0  0  0  0  0  0  0  0  0
    5.3222    1.6505   -4.8029 C   0  0  3  0  0  0  0  0  0  0  0  0
    6.6654    2.0628   -4.5167 O   0  0  0  0  0  0  0  0  0  0  0  0
    5.4131    0.5427   -5.8504 C   0  0  0  0  0  0  0  0  0  0  0  0
    4.0618    0.0898   -6.3381 C   0  0  0  0  0  0  0  0  0  0  0  0
    3.0765    0.8170   -6.4347 O   0  0  0  0  0  0  0  0  0  0  0  0
    4.0419   -1.2274   -6.7527 N   0  0  0  0  0  0  0  0  0  0  0  0
    2.7779   -1.7243   -7.1389 O   0  0  0  0  0  0  0  0  0  0  0  0
    5.0741    0.1162   -2.7851 C   0  0  0  0  0  0  0  0  0  0  0  0
    4.3881   -0.2985   -1.6356 C   0  0  0  0  0  0  0  0  0  0  0  0
    0.8625    0.0307    1.2375 H   0  0  0  0  0  0  0  0  0  0  0  0
    0.5632    0.5275   -0.4165 H   0  0  0  0  0  0  0  0  0  0  0  0
    1.4943    1.5850    0.6874 H   0  0  0  0  0  0  0  0  0  0  0  0
    2.6041   -1.1320    1.8122 H   0  0  0  0  0  0  0  0  0  0  0  0
    4.1564   -0.5006    1.2658 H   0  0  0  0  0  0  0  0  0  0  0  0
    3.4316   -1.9409    0.4927 H   0  0  0  0  0  0  0  0  0  0  0  0
    1.9353    2.0302   -1.6270 H   0  0  0  0  0  0  0  0  0  0  0  0
    3.1153    2.7578   -3.6085 H   0  0  0  0  0  0  0  0  0  0  0  0
    4.8104    2.5226   -5.2285 H   0  0  0  0  0  0  0  0  0  0  0  0
    6.8800    1.8027   -3.6052 H   0  0  0  0  0  0  0  0  0  0  0  0
    5.9871   -0.3081   -5.4651 H   0  0  0  0  0  0  0  0  0  0  0  0
    5.9720    0.9090   -6.7206 H   0  0  0  0  0  0  0  0  0  0  0  0
    4.7015   -1.9140   -6.4006 H   0  0  0  0  0  0  0  0  0  0  0  0
    2.1963   -0.9374   -7.0304 H   0  0  0  0  0  0  0  0  0  0  0  0
    5.9525   -0.4446   -3.0934 H   0  0  0  0  0  0  0  0  0  0  0  0
    4.7733   -1.1759   -1.1234 H   0  0  0  0  0  0  0  0  0  0  0  0
  1  2  1  0  0  0  0
  1 17  1  0  0  0  0
  1 18  1  0  0  0  0
  1 19  1  0  0  0  0
  2  3  1  0  0  0  0
  2  4  1  0  0  0  0
  3 20  1  0  0  0  0
  3 21  1  0  0  0  0
  3 22  1  0  0  0  0
  4  5  1  0  0  0  0
  4 16  2  0  0  0  0
  5  6  2  0  0  0  0
  5 23  1  0  0  0  0
  6  7  1  0  0  0  0
  6 24  1  0  0  0  0
  7  8  1  0  0  0  0
  7 15  2  0  0  0  0
  8  9  1  0  0  0  0
  8 10  1  0  0  0  0
  8 25  1  0  0  0  0
  9 26  1  0  0  0  0
 10 11  1  0  0  0  0
 10 27  1  0  0  0  0
 10 28  1  0  0  0  0
 11 12  2  0  0  0  0
 11 13  1  0  0  0  0
 13 14  1  0  0  0  0
 13 29  1  0  0  0  0
 14 30  1  0  0  0  0
 15 16  1  0  0  0  0
 15 31  1  0  0  0  0
 16 32  1  0  0  0  0
M  END
>  <Line_Number>
76


> <IC50>
7130

$$$$
