71721723.0
 OpenBabel09092522103D

 25 25  0  0  1  0  0  0  0  0999 V2000
    2.4983    0.3236   -1.2176 O   0  0  0  0  0  0  0  0  0  0  0  0
    2.1978    0.0018   -0.0674 C   0  0  0  0  0  0  0  0  0  0  0  0
    3.0027    0.4420    1.1373 C   0  0  0  0  0  0  0  0  0  0  0  0
    2.1113    0.8659    2.3083 C   0  0  3  0  0  0  0  0  0  0  0  0
    1.3486   -0.2629    2.7602 O   0  0  0  0  0  0  0  0  0  0  0  0
    2.8904    1.4248    3.4819 C   0  0  0  0  0  0  0  0  0  0  0  0
    2.6828    2.7547    3.8858 C   0  0  0  0  0  0  0  0  0  0  0  0
    3.3821    3.2810    4.9738 C   0  0  0  0  0  0  0  0  0  0  0  0
    3.1001    4.9051    5.4671 Cl  0  0  0  0  0  0  0  0  0  0  0  0
    4.3003    2.4996    5.6710 C   0  0  0  0  0  0  0  0  0  0  0  0
    4.5128    1.1752    5.2915 C   0  0  0  0  0  0  0  0  0  0  0  0
    3.8039    0.6489    4.2121 C   0  0  0  0  0  0  0  0  0  0  0  0
    3.9585   -0.6674    3.8729 O   0  0  0  0  0  0  0  0  0  0  0  0
    1.1608   -0.8565    0.1969 N   0  0  0  0  0  0  0  0  0  0  0  0
    0.3367   -1.1997   -0.8991 O   0  0  0  0  0  0  0  0  0  0  0  0
    3.6340    1.2849    0.8291 H   0  0  0  0  0  0  0  0  0  0  0  0
    3.6615   -0.3934    1.3968 H   0  0  0  0  0  0  0  0  0  0  0  0
    1.3837    1.6064    1.9544 H   0  0  0  0  0  0  0  0  0  0  0  0
    1.9541   -0.7850    3.3256 H   0  0  0  0  0  0  0  0  0  0  0  0
    1.9634    3.3810    3.3623 H   0  0  0  0  0  0  0  0  0  0  0  0
    4.8416    2.9120    6.5189 H   0  0  0  0  0  0  0  0  0  0  0  0
    5.2157    0.5693    5.8560 H   0  0  0  0  0  0  0  0  0  0  0  0
    4.6829   -1.0453    4.4031 H   0  0  0  0  0  0  0  0  0  0  0  0
    0.7375   -0.8959    1.1279 H   0  0  0  0  0  0  0  0  0  0  0  0
    0.7764   -0.7341   -1.6423 H   0  0  0  0  0  0  0  0  0  0  0  0
  1  2  2  0  0  0  0
  2  3  1  0  0  0  0
  2 14  1  0  0  0  0
  3  4  1  0  0  0  0
  3 16  1  0  0  0  0
  3 17  1  0  0  0  0
  4  5  1  0  0  0  0
  4  6  1  0  0  0  0
  4 18  1  0  0  0  0
  5 19  1  0  0  0  0
  6  7  1  0  0  0  0
  6 12  2  0  0  0  0
  7  8  2  0  0  0  0
  7 20  1  0  0  0  0
  8  9  1  0  0  0  0
  8 10  1  0  0  0  0
 10 11  2  0  0  0  0
 10 21  1  0  0  0  0
 11 12  1  0  0  0  0
 11 22  1  0  0  0  0
 12 13  1  0  0  0  0
 13 23  1  0  0  0  0
 14 15  1  0  0  0  0
 14 24  1  0  0  0  0
 15 25  1  0  0  0  0
M  END
>  <Line_Number>
77


> <IC50>
1280

$$$$
