71721721.0
 OpenBabel09092522103D

 24 24  0  0  1  0  0  0  0  0999 V2000
    2.4777   -1.1982    0.0679 O   0  0  0  0  0  0  0  0  0  0  0  0
    2.0949   -0.0334   -0.0382 C   0  0  0  0  0  0  0  0  0  0  0  0
    2.8529    1.0060   -0.8396 C   0  0  0  0  0  0  0  0  0  0  0  0
    1.9221    1.9172   -1.6408 C   0  0  3  0  0  0  0  0  0  0  0  0
    1.0971    2.6649   -0.7359 O   0  0  0  0  0  0  0  0  0  0  0  0
    2.6510    2.8862   -2.5495 C   0  0  0  0  0  0  0  0  0  0  0  0
    2.4122    2.8579   -3.9339 C   0  0  0  0  0  0  0  0  0  0  0  0
    3.0328    3.7742   -4.7897 C   0  0  0  0  0  0  0  0  0  0  0  0
    3.8960    4.7397   -4.2709 C   0  0  0  0  0  0  0  0  0  0  0  0
    4.1449    4.7738   -2.9003 C   0  0  0  0  0  0  0  0  0  0  0  0
    5.1929    5.9758   -2.2565 Cl  0  0  0  0  0  0  0  0  0  0  0  0
    3.5381    3.8538   -2.0443 C   0  0  0  0  0  0  0  0  0  0  0  0
    0.9976    0.4333    0.6481 N   0  0  0  0  0  0  0  0  0  0  0  0
    0.2382   -0.5313    1.3440 O   0  0  0  0  0  0  0  0  0  0  0  0
    3.5248    0.4724   -1.5235 H   0  0  0  0  0  0  0  0  0  0  0  0
    3.4678    1.5743   -0.1331 H   0  0  0  0  0  0  0  0  0  0  0  0
    1.2387    1.2962   -2.2327 H   0  0  0  0  0  0  0  0  0  0  0  0
    1.6251    3.3998   -0.3761 H   0  0  0  0  0  0  0  0  0  0  0  0
    1.7295    2.1246   -4.3619 H   0  0  0  0  0  0  0  0  0  0  0  0
    2.8309    3.7435   -5.8576 H   0  0  0  0  0  0  0  0  0  0  0  0
    4.3612    5.4576   -4.9383 H   0  0  0  0  0  0  0  0  0  0  0  0
    3.7516    3.9095   -0.9815 H   0  0  0  0  0  0  0  0  0  0  0  0
    0.5062    1.2757    0.3439 H   0  0  0  0  0  0  0  0  0  0  0  0
    0.7630   -1.3517    1.2128 H   0  0  0  0  0  0  0  0  0  0  0  0
  1  2  2  0  0  0  0
  2  3  1  0  0  0  0
  2 13  1  0  0  0  0
  3  4  1  0  0  0  0
  3 15  1  0  0  0  0
  3 16  1  0  0  0  0
  4  5  1  0  0  0  0
  4  6  1  0  0  0  0
  4 17  1  0  0  0  0
  5 18  1  0  0  0  0
  6  7  1  0  0  0  0
  6 12  2  0  0  0  0
  7  8  2  0  0  0  0
  7 19  1  0  0  0  0
  8  9  1  0  0  0  0
  8 20  1  0  0  0  0
  9 10  2  0  0  0  0
  9 21  1  0  0  0  0
 10 11  1  0  0  0  0
 10 12  1  0  0  0  0
 12 22  1  0  0  0  0
 13 14  1  0  0  0  0
 13 23  1  0  0  0  0
 14 24  1  0  0  0  0
M  END
>  <Line_Number>
78


> <IC50>
83

$$$$
