49844562.0
 OpenBabel09092522103D

 36 37  0  0  0  0  0  0  0  0999 V2000
    1.0637   -0.2689    0.3244 C   0  0  0  0  0  0  0  0  0  0  0  0
    2.4317   -0.0966   -0.0280 O   0  0  0  0  0  0  0  0  0  0  0  0
    3.0794    0.9776    0.5223 C   0  0  0  0  0  0  0  0  0  0  0  0
    2.6638    1.5737    1.7178 C   0  0  0  0  0  0  0  0  0  0  0  0
    3.3851    2.6262    2.2876 C   0  0  0  0  0  0  0  0  0  0  0  0
    4.5635    3.0932    1.6985 C   0  0  0  0  0  0  0  0  0  0  0  0
    5.3592    4.2396    2.2827 C   0  0  0  0  0  0  0  0  0  0  0  0
    5.3298    4.3246    3.8157 C   0  0  0  0  0  0  0  0  0  0  0  0
    6.1535    5.4707    4.3459 C   0  0  0  0  0  0  0  0  0  0  0  0
    7.4891    5.2765    4.7187 C   0  0  0  0  0  0  0  0  0  0  0  0
    8.2468    6.3396    5.2133 C   0  0  0  0  0  0  0  0  0  0  0  0
    7.6761    7.6070    5.3345 C   0  0  0  0  0  0  0  0  0  0  0  0
    6.3488    7.8062    4.9620 C   0  0  0  0  0  0  0  0  0  0  0  0
    5.6422    9.3677    5.1150 Cl  0  0  0  0  0  0  0  0  0  0  0  0
    5.5874    6.7481    4.4679 C   0  0  0  0  0  0  0  0  0  0  0  0
    4.9725    2.4993    0.4950 C   0  0  0  0  0  0  0  0  0  0  0  0
    4.2414    1.4595   -0.1023 C   0  0  0  0  0  0  0  0  0  0  0  0
    4.8048    0.9967   -1.2650 O   0  0  0  0  0  0  0  0  0  0  0  0
    3.9090    0.4955   -2.2495 C   0  0  0  0  0  0  0  0  0  0  0  0
    0.6604   -1.0808   -0.2885 H   0  0  0  0  0  0  0  0  0  0  0  0
    0.4849    0.6355    0.1082 H   0  0  0  0  0  0  0  0  0  0  0  0
    0.9553   -0.5681    1.3717 H   0  0  0  0  0  0  0  0  0  0  0  0
    1.7885    1.2276    2.2557 H   0  0  0  0  0  0  0  0  0  0  0  0
    3.0038    3.0576    3.2084 H   0  0  0  0  0  0  0  0  0  0  0  0
    4.9791    5.1724    1.8463 H   0  0  0  0  0  0  0  0  0  0  0  0
    6.4053    4.1459    1.9603 H   0  0  0  0  0  0  0  0  0  0  0  0
    5.6833    3.3820    4.2535 H   0  0  0  0  0  0  0  0  0  0  0  0
    4.3048    4.4568    4.1822 H   0  0  0  0  0  0  0  0  0  0  0  0
    7.9467    4.2926    4.6314 H   0  0  0  0  0  0  0  0  0  0  0  0
    9.2811    6.1796    5.5046 H   0  0  0  0  0  0  0  0  0  0  0  0
    8.2690    8.4311    5.7218 H   0  0  0  0  0  0  0  0  0  0  0  0
    4.5517    6.9168    4.1823 H   0  0  0  0  0  0  0  0  0  0  0  0
    5.8744    2.8534   -0.0049 H   0  0  0  0  0  0  0  0  0  0  0  0
    4.4290    0.5172   -3.2119 H   0  0  0  0  0  0  0  0  0  0  0  0
    3.0120    1.1170   -2.3477 H   0  0  0  0  0  0  0  0  0  0  0  0
    3.6541   -0.5500   -2.0480 H   0  0  0  0  0  0  0  0  0  0  0  0
  1  2  1  0  0  0  0
  1 20  1  0  0  0  0
  1 21  1  0  0  0  0
  1 22  1  0  0  0  0
  2  3  1  0  0  0  0
  3  4  1  0  0  0  0
  3 17  2  0  0  0  0
  4  5  2  0  0  0  0
  4 23  1  0  0  0  0
  5  6  1  0  0  0  0
  5 24  1  0  0  0  0
  6  7  1  0  0  0  0
  6 16  2  0  0  0  0
  7  8  1  0  0  0  0
  7 25  1  0  0  0  0
  7 26  1  0  0  0  0
  8  9  1  0  0  0  0
  8 27  1  0  0  0  0
  8 28  1  0  0  0  0
  9 10  1  0  0  0  0
  9 15  2  0  0  0  0
 10 11  2  0  0  0  0
 10 29  1  0  0  0  0
 11 12  1  0  0  0  0
 11 30  1  0  0  0  0
 12 13  2  0  0  0  0
 12 31  1  0  0  0  0
 13 14  1  0  0  0  0
 13 15  1  0  0  0  0
 15 32  1  0  0  0  0
 16 17  1  0  0  0  0
 16 33  1  0  0  0  0
 17 18  1  0  0  0  0
 18 19  1  0  0  0  0
 19 34  1  0  0  0  0
 19 35  1  0  0  0  0
 19 36  1  0  0  0  0
M  END
>  <Line_Number>
7


> <IC50>
235000

$$$$
