155546770.0
 OpenBabel09092522103D

 41 42  0  0  1  0  0  0  0  0999 V2000
    4.9959    1.5742    5.2284 C   0  0  0  0  0  0  0  0  0  0  0  0
    4.6520    0.6628    4.1579 N   0  0  0  0  0  0  0  0  0  0  0  0
    3.9274   -0.4733    4.5449 O   0  0  0  0  0  0  0  0  0  0  0  0
    5.0102    0.8608    2.8456 C   0  0  0  0  0  0  0  0  0  0  0  0
    5.6130    1.8713    2.4753 O   0  0  0  0  0  0  0  0  0  0  0  0
    4.6014   -0.2005    1.8522 C   0  0  0  0  0  0  0  0  0  0  0  0
    5.2774   -1.5551    2.0792 C   0  0  3  0  0  0  0  0  0  0  0  0
    4.8244   -2.4358    1.0413 O   0  0  0  0  0  0  0  0  0  0  0  0
    6.7926   -1.5572    2.0757 C   0  0  0  0  0  0  0  0  0  0  0  0
    7.4888   -2.4795    2.8726 C   0  0  0  0  0  0  0  0  0  0  0  0
    8.8836   -2.5589    2.8234 C   0  0  0  0  0  0  0  0  0  0  0  0
    9.5997   -1.7302    1.9649 C   0  0  0  0  0  0  0  0  0  0  0  0
   10.9525   -1.9465    1.9047 O   0  0  0  0  0  0  0  0  0  0  0  0
   11.5578   -1.5021    0.6872 C   0  0  0  0  0  0  0  0  0  0  0  0
   12.8605   -2.2176    0.4481 C   0  0  0  0  0  0  0  0  0  0  0  0
   12.9067   -3.6176    0.4329 C   0  0  0  0  0  0  0  0  0  0  0  0
   14.0925   -4.2819    0.1170 C   0  0  0  0  0  0  0  0  0  0  0  0
   15.2381   -3.5489   -0.1882 C   0  0  0  0  0  0  0  0  0  0  0  0
   15.2028   -2.1564   -0.1764 C   0  0  0  0  0  0  0  0  0  0  0  0
   14.0184   -1.4909    0.1371 C   0  0  0  0  0  0  0  0  0  0  0  0
    8.9235   -0.7675    1.2160 C   0  0  0  0  0  0  0  0  0  0  0  0
    7.5318   -0.6959    1.2552 C   0  0  0  0  0  0  0  0  0  0  0  0
    4.5426    1.2533    6.1692 H   0  0  0  0  0  0  0  0  0  0  0  0
    4.6371    2.5704    4.9590 H   0  0  0  0  0  0  0  0  0  0  0  0
    6.0830    1.6092    5.3262 H   0  0  0  0  0  0  0  0  0  0  0  0
    3.2371   -0.1158    5.1329 H   0  0  0  0  0  0  0  0  0  0  0  0
    4.8202    0.1689    0.8406 H   0  0  0  0  0  0  0  0  0  0  0  0
    3.5118   -0.3128    1.8709 H   0  0  0  0  0  0  0  0  0  0  0  0
    4.9278   -1.9924    3.0202 H   0  0  0  0  0  0  0  0  0  0  0  0
    5.4787   -2.4040    0.3228 H   0  0  0  0  0  0  0  0  0  0  0  0
    6.9440   -3.1604    3.5275 H   0  0  0  0  0  0  0  0  0  0  0  0
    9.4075   -3.2910    3.4359 H   0  0  0  0  0  0  0  0  0  0  0  0
   11.7255   -0.4207    0.7536 H   0  0  0  0  0  0  0  0  0  0  0  0
   10.9206   -1.7182   -0.1818 H   0  0  0  0  0  0  0  0  0  0  0  0
   12.0111   -4.1955    0.6557 H   0  0  0  0  0  0  0  0  0  0  0  0
   14.1175   -5.3667    0.1010 H   0  0  0  0  0  0  0  0  0  0  0  0
   16.1598   -4.0664   -0.4392 H   0  0  0  0  0  0  0  0  0  0  0  0
   16.0951   -1.5862   -0.4214 H   0  0  0  0  0  0  0  0  0  0  0  0
   14.0011   -0.4039    0.1268 H   0  0  0  0  0  0  0  0  0  0  0  0
    9.4476   -0.0630    0.5777 H   0  0  0  0  0  0  0  0  0  0  0  0
    7.0441    0.0464    0.6272 H   0  0  0  0  0  0  0  0  0  0  0  0
  1  2  1  0  0  0  0
  1 23  1  0  0  0  0
  1 24  1  0  0  0  0
  1 25  1  0  0  0  0
  2  3  1  0  0  0  0
  2  4  1  0  0  0  0
  3 26  1  0  0  0  0
  4  5  2  0  0  0  0
  4  6  1  0  0  0  0
  6  7  1  0  0  0  0
  6 27  1  0  0  0  0
  6 28  1  0  0  0  0
  7  8  1  0  0  0  0
  7  9  1  0  0  0  0
  7 29  1  0  0  0  0
  8 30  1  0  0  0  0
  9 10  1  0  0  0  0
  9 22  2  0  0  0  0
 10 11  2  0  0  0  0
 10 31  1  0  0  0  0
 11 12  1  0  0  0  0
 11 32  1  0  0  0  0
 12 13  1  0  0  0  0
 12 21  2  0  0  0  0
 13 14  1  0  0  0  0
 14 15  1  0  0  0  0
 14 33  1  0  0  0  0
 14 34  1  0  0  0  0
 15 16  1  0  0  0  0
 15 20  2  0  0  0  0
 16 17  2  0  0  0  0
 16 35  1  0  0  0  0
 17 18  1  0  0  0  0
 17 36  1  0  0  0  0
 18 19  2  0  0  0  0
 18 37  1  0  0  0  0
 19 20  1  0  0  0  0
 19 38  1  0  0  0  0
 20 39  1  0  0  0  0
 21 22  1  0  0  0  0
 21 40  1  0  0  0  0
 22 41  1  0  0  0  0
M  END
>  <Line_Number>
80


> <IC50>
198000

$$$$
