155565349.0
 OpenBabel09092522103D

 27 27  0  0  1  0  0  0  0  0999 V2000
    4.7162    0.3072   -2.8067 C   0  0  0  0  0  0  0  0  0  0  0  0
    4.3056    0.2041   -1.4163 N   0  0  0  0  0  0  0  0  0  0  0  0
    3.8868   -1.0770   -1.0081 O   0  0  0  0  0  0  0  0  0  0  0  0
    4.7979    1.0658   -0.4597 C   0  0  0  0  0  0  0  0  0  0  0  0
    5.4485    2.0703   -0.7628 O   0  0  0  0  0  0  0  0  0  0  0  0
    4.4306    0.7543    0.9733 C   0  0  0  0  0  0  0  0  0  0  0  0
    5.2158    1.6042    1.9785 C   0  0  3  0  0  0  0  0  0  0  0  0
    4.7503    1.2500    3.2902 O   0  0  0  0  0  0  0  0  0  0  0  0
    6.7416    1.6125    2.0056 C   0  0  0  0  0  0  0  0  0  0  0  0
    7.4093    2.7861    2.4446 C   0  0  0  0  0  0  0  0  0  0  0  0
    6.5651    4.2200    2.9400 Cl  0  0  0  0  0  0  0  0  0  0  0  0
    8.8082    2.8608    2.5244 C   0  0  0  0  0  0  0  0  0  0  0  0
    9.5904    1.7725    2.1709 C   0  0  0  0  0  0  0  0  0  0  0  0
    8.9692    0.6076    1.7429 C   0  0  0  0  0  0  0  0  0  0  0  0
    7.5677    0.5194    1.6690 C   0  0  0  0  0  0  0  0  0  0  0  0
    6.9832   -1.0337    1.1865 Cl  0  0  0  0  0  0  0  0  0  0  0  0
    4.2789   -0.4997   -3.3988 H   0  0  0  0  0  0  0  0  0  0  0  0
    5.8085    0.2667   -2.8572 H   0  0  0  0  0  0  0  0  0  0  0  0
    4.3864    1.2754   -3.1926 H   0  0  0  0  0  0  0  0  0  0  0  0
    4.3805   -1.6881   -1.5828 H   0  0  0  0  0  0  0  0  0  0  0  0
    4.5069   -0.3103    1.2068 H   0  0  0  0  0  0  0  0  0  0  0  0
    3.3611    0.9818    1.0896 H   0  0  0  0  0  0  0  0  0  0  0  0
    4.8638    2.6255    1.7971 H   0  0  0  0  0  0  0  0  0  0  0  0
    5.2697    0.4869    3.5949 H   0  0  0  0  0  0  0  0  0  0  0  0
    9.2904    3.7737    2.8679 H   0  0  0  0  0  0  0  0  0  0  0  0
   10.6737    1.8278    2.2352 H   0  0  0  0  0  0  0  0  0  0  0  0
    9.5871   -0.2471    1.4729 H   0  0  0  0  0  0  0  0  0  0  0  0
  1  2  1  0  0  0  0
  1 17  1  0  0  0  0
  1 18  1  0  0  0  0
  1 19  1  0  0  0  0
  2  3  1  0  0  0  0
  2  4  1  0  0  0  0
  3 20  1  0  0  0  0
  4  5  2  0  0  0  0
  4  6  1  0  0  0  0
  6  7  1  0  0  0  0
  6 21  1  0  0  0  0
  6 22  1  0  0  0  0
  7  8  1  0  0  0  0
  7  9  1  0  0  0  0
  7 23  1  0  0  0  0
  8 24  1  0  0  0  0
  9 10  1  0  0  0  0
  9 15  2  0  0  0  0
 10 11  1  0  0  0  0
 10 12  2  0  0  0  0
 12 13  1  0  0  0  0
 12 25  1  0  0  0  0
 13 14  2  0  0  0  0
 13 26  1  0  0  0  0
 14 15  1  0  0  0  0
 14 27  1  0  0  0  0
 15 16  1  0  0  0  0
M  END
>  <Line_Number>
81


> <IC50>
77900

$$$$
