155560525.0
 OpenBabel09092522103D

 41 42  0  0  1  0  0  0  0  0999 V2000
    0.8660    1.1376   -0.8611 C   0  0  0  0  0  0  0  0  0  0  0  0
    2.2541    1.0601   -1.2752 N   0  0  0  0  0  0  0  0  0  0  0  0
    2.9893    0.1158   -0.5340 O   0  0  0  0  0  0  0  0  0  0  0  0
    2.9131    2.1307   -1.8499 C   0  0  0  0  0  0  0  0  0  0  0  0
    2.3368    3.1681   -2.1843 O   0  0  0  0  0  0  0  0  0  0  0  0
    4.4025    1.9466   -2.1031 C   0  0  0  0  0  0  0  0  0  0  0  0
    5.2764    2.4455   -0.9526 C   0  0  3  0  0  0  0  0  0  0  0  0
    5.0274    1.7042    0.2529 O   0  0  0  0  0  0  0  0  0  0  0  0
    6.7968    2.4116   -1.1293 C   0  0  0  0  0  0  0  0  0  0  0  0
    7.5568    2.8895   -0.0295 C   0  0  0  0  0  0  0  0  0  0  0  0
    8.9501    2.8662   -0.0307 C   0  0  0  0  0  0  0  0  0  0  0  0
    9.8302    3.4630    1.3199 Cl  0  0  0  0  0  0  0  0  0  0  0  0
    9.6313    2.3512   -1.1197 C   0  0  0  0  0  0  0  0  0  0  0  0
    8.9123    1.8826   -2.2177 C   0  0  0  0  0  0  0  0  0  0  0  0
    7.5050    1.9424   -2.2558 C   0  0  0  0  0  0  0  0  0  0  0  0
    6.7995    1.5423   -3.3663 O   0  0  0  0  0  0  0  0  0  0  0  0
    7.5333    1.5370   -4.5977 C   0  0  0  0  0  0  0  0  0  0  0  0
    6.6330    1.4852   -5.8094 C   0  0  0  0  0  0  0  0  0  0  0  0
    7.0047    2.1890   -6.9671 C   0  0  0  0  0  0  0  0  0  0  0  0
    6.2460    2.0973   -8.1334 C   0  0  0  0  0  0  0  0  0  0  0  0
    5.1099    1.2934   -8.1589 C   0  0  0  0  0  0  0  0  0  0  0  0
    4.7332    0.5822   -7.0196 C   0  0  0  0  0  0  0  0  0  0  0  0
    5.4919    0.6741   -5.8502 C   0  0  0  0  0  0  0  0  0  0  0  0
    0.5544    0.1925   -0.4052 H   0  0  0  0  0  0  0  0  0  0  0  0
    0.2570    1.3324   -1.7488 H   0  0  0  0  0  0  0  0  0  0  0  0
    0.7360    1.9608   -0.1545 H   0  0  0  0  0  0  0  0  0  0  0  0
    2.6849   -0.7264   -0.9265 H   0  0  0  0  0  0  0  0  0  0  0  0
    4.6158    2.5158   -3.0158 H   0  0  0  0  0  0  0  0  0  0  0  0
    4.5915    0.8901   -2.3209 H   0  0  0  0  0  0  0  0  0  0  0  0
    4.9973    3.4860   -0.7407 H   0  0  0  0  0  0  0  0  0  0  0  0
    4.2220    1.1649    0.1319 H   0  0  0  0  0  0  0  0  0  0  0  0
    7.0372    3.2646    0.8515 H   0  0  0  0  0  0  0  0  0  0  0  0
   10.7169    2.3078   -1.1272 H   0  0  0  0  0  0  0  0  0  0  0  0
    9.4902    1.4666   -3.0377 H   0  0  0  0  0  0  0  0  0  0  0  0
    8.1821    0.6541   -4.6328 H   0  0  0  0  0  0  0  0  0  0  0  0
    8.1383    2.4502   -4.6668 H   0  0  0  0  0  0  0  0  0  0  0  0
    7.8972    2.8117   -6.9705 H   0  0  0  0  0  0  0  0  0  0  0  0
    6.5453    2.6494   -9.0205 H   0  0  0  0  0  0  0  0  0  0  0  0
    4.5217    1.2186   -9.0695 H   0  0  0  0  0  0  0  0  0  0  0  0
    3.8503   -0.0494   -7.0470 H   0  0  0  0  0  0  0  0  0  0  0  0
    5.1990    0.0962   -4.9780 H   0  0  0  0  0  0  0  0  0  0  0  0
  1  2  1  0  0  0  0
  1 24  1  0  0  0  0
  1 25  1  0  0  0  0
  1 26  1  0  0  0  0
  2  3  1  0  0  0  0
  2  4  1  0  0  0  0
  3 27  1  0  0  0  0
  4  5  2  0  0  0  0
  4  6  1  0  0  0  0
  6  7  1  0  0  0  0
  6 28  1  0  0  0  0
  6 29  1  0  0  0  0
  7  8  1  0  0  0  0
  7  9  1  0  0  0  0
  7 30  1  0  0  0  0
  8 31  1  0  0  0  0
  9 10  1  0  0  0  0
  9 15  2  0  0  0  0
 10 11  2  0  0  0  0
 10 32  1  0  0  0  0
 11 12  1  0  0  0  0
 11 13  1  0  0  0  0
 13 14  2  0  0  0  0
 13 33  1  0  0  0  0
 14 15  1  0  0  0  0
 14 34  1  0  0  0  0
 15 16  1  0  0  0  0
 16 17  1  0  0  0  0
 17 18  1  0  0  0  0
 17 35  1  0  0  0  0
 17 36  1  0  0  0  0
 18 19  1  0  0  0  0
 18 23  2  0  0  0  0
 19 20  2  0  0  0  0
 19 37  1  0  0  0  0
 20 21  1  0  0  0  0
 20 38  1  0  0  0  0
 21 22  2  0  0  0  0
 21 39  1  0  0  0  0
 22 23  1  0  0  0  0
 22 40  1  0  0  0  0
 23 41  1  0  0  0  0
M  END
>  <Line_Number>
83


> <IC50>
26200

$$$$
