155546187.0
 OpenBabel09092522103D

 27 27  0  0  1  0  0  0  0  0999 V2000
    1.1595   -1.9013    0.4247 C   0  0  0  0  0  0  0  0  0  0  0  0
    2.5979   -1.7170    0.4468 N   0  0  0  0  0  0  0  0  0  0  0  0
    3.3512   -2.8905    0.2568 O   0  0  0  0  0  0  0  0  0  0  0  0
    3.1964   -0.6459    1.0884 C   0  0  0  0  0  0  0  0  0  0  0  0
    2.5426    0.2842    1.5783 O   0  0  0  0  0  0  0  0  0  0  0  0
    4.7069   -0.6202    1.0914 C   0  0  0  0  0  0  0  0  0  0  0  0
    5.3096   -1.2977    2.3220 C   0  0  3  0  0  0  0  0  0  0  0  0
    4.9973   -2.6835    2.4288 O   0  0  0  0  0  0  0  0  0  0  0  0
    6.8283   -1.2310    2.3048 C   0  0  0  0  0  0  0  0  0  0  0  0
    7.5623   -1.8137    1.2566 C   0  0  0  0  0  0  0  0  0  0  0  0
    8.9579   -1.7786    1.2516 C   0  0  0  0  0  0  0  0  0  0  0  0
    9.6463   -1.1668    2.3004 C   0  0  0  0  0  0  0  0  0  0  0  0
   11.3726   -1.1658    2.2329 Cl  0  0  0  0  0  0  0  0  0  0  0  0
    8.9314   -0.5882    3.3540 C   0  0  0  0  0  0  0  0  0  0  0  0
    9.7168    0.1855    4.6855 Cl  0  0  0  0  0  0  0  0  0  0  0  0
    7.5304   -0.6224    3.3551 C   0  0  0  0  0  0  0  0  0  0  0  0
    0.9008   -2.8080   -0.1302 H   0  0  0  0  0  0  0  0  0  0  0  0
    0.7152   -1.0325   -0.0635 H   0  0  0  0  0  0  0  0  0  0  0  0
    0.7815   -1.9625    1.4493 H   0  0  0  0  0  0  0  0  0  0  0  0
    2.9492   -3.2766   -0.5438 H   0  0  0  0  0  0  0  0  0  0  0  0
    5.0132    0.4320    1.0559 H   0  0  0  0  0  0  0  0  0  0  0  0
    5.0584   -1.0684    0.1604 H   0  0  0  0  0  0  0  0  0  0  0  0
    4.9257   -0.8160    3.2294 H   0  0  0  0  0  0  0  0  0  0  0  0
    4.7218   -2.9997    1.5479 H   0  0  0  0  0  0  0  0  0  0  0  0
    7.0496   -2.3186    0.4402 H   0  0  0  0  0  0  0  0  0  0  0  0
    9.5013   -2.2406    0.4306 H   0  0  0  0  0  0  0  0  0  0  0  0
    6.9852   -0.1803    4.1874 H   0  0  0  0  0  0  0  0  0  0  0  0
  1  2  1  0  0  0  0
  1 17  1  0  0  0  0
  1 18  1  0  0  0  0
  1 19  1  0  0  0  0
  2  3  1  0  0  0  0
  2  4  1  0  0  0  0
  3 20  1  0  0  0  0
  4  5  2  0  0  0  0
  4  6  1  0  0  0  0
  6  7  1  0  0  0  0
  6 21  1  0  0  0  0
  6 22  1  0  0  0  0
  7  8  1  0  0  0  0
  7  9  1  0  0  0  0
  7 23  1  0  0  0  0
  8 24  1  0  0  0  0
  9 10  1  0  0  0  0
  9 16  2  0  0  0  0
 10 11  2  0  0  0  0
 10 25  1  0  0  0  0
 11 12  1  0  0  0  0
 11 26  1  0  0  0  0
 12 13  1  0  0  0  0
 12 14  2  0  0  0  0
 14 15  1  0  0  0  0
 14 16  1  0  0  0  0
 16 27  1  0  0  0  0
M  END
>  <Line_Number>
87


> <IC50>
90400

$$$$
