155562391.0
 OpenBabel09092522103D

 27 27  0  0  1  0  0  0  0  0999 V2000
    1.1040    1.4134   -1.2310 C   0  0  0  0  0  0  0  0  0  0  0  0
    2.5400    1.3014   -1.0876 N   0  0  0  0  0  0  0  0  0  0  0  0
    3.2173    2.4677   -1.4966 O   0  0  0  0  0  0  0  0  0  0  0  0
    3.1904    0.0858   -1.2497 C   0  0  0  0  0  0  0  0  0  0  0  0
    2.5880   -0.9836   -1.3134 O   0  0  0  0  0  0  0  0  0  0  0  0
    4.7062    0.1340   -1.2723 C   0  0  0  0  0  0  0  0  0  0  0  0
    5.2737    0.2628   -2.6880 C   0  0  3  0  0  0  0  0  0  0  0  0
    4.9691    1.5109   -3.3098 O   0  0  0  0  0  0  0  0  0  0  0  0
    6.7892    0.1839   -2.6823 C   0  0  0  0  0  0  0  0  0  0  0  0
    7.5545    1.1425   -1.9888 C   0  0  0  0  0  0  0  0  0  0  0  0
    8.9506    1.0990   -1.9987 C   0  0  0  0  0  0  0  0  0  0  0  0
    9.6042    0.0985   -2.7108 C   0  0  0  0  0  0  0  0  0  0  0  0
    8.8566   -0.8466   -3.4044 C   0  0  0  0  0  0  0  0  0  0  0  0
    9.4904   -1.8009   -4.0992 F   0  0  0  0  0  0  0  0  0  0  0  0
    7.4632   -0.8161   -3.3964 C   0  0  0  0  0  0  0  0  0  0  0  0
    0.7944    2.4480   -1.0554 H   0  0  0  0  0  0  0  0  0  0  0  0
    0.6270    0.7602   -0.4940 H   0  0  0  0  0  0  0  0  0  0  0  0
    0.8071    1.0966   -2.2346 H   0  0  0  0  0  0  0  0  0  0  0  0
    3.0548    3.0653   -0.7396 H   0  0  0  0  0  0  0  0  0  0  0  0
    5.0638   -0.7921   -0.8039 H   0  0  0  0  0  0  0  0  0  0  0  0
    5.0379    0.9529   -0.6243 H   0  0  0  0  0  0  0  0  0  0  0  0
    4.8544   -0.5244   -3.3276 H   0  0  0  0  0  0  0  0  0  0  0  0
    4.3689    2.0102   -2.7245 H   0  0  0  0  0  0  0  0  0  0  0  0
    7.0593    1.9509   -1.4535 H   0  0  0  0  0  0  0  0  0  0  0  0
    9.5215    1.8535   -1.4645 H   0  0  0  0  0  0  0  0  0  0  0  0
   10.6882    0.0556   -2.7393 H   0  0  0  0  0  0  0  0  0  0  0  0
    6.9208   -1.5658   -3.9644 H   0  0  0  0  0  0  0  0  0  0  0  0
  1  2  1  0  0  0  0
  1 16  1  0  0  0  0
  1 17  1  0  0  0  0
  1 18  1  0  0  0  0
  2  3  1  0  0  0  0
  2  4  1  0  0  0  0
  3 19  1  0  0  0  0
  4  5  2  0  0  0  0
  4  6  1  0  0  0  0
  6  7  1  0  0  0  0
  6 20  1  0  0  0  0
  6 21  1  0  0  0  0
  7  8  1  0  0  0  0
  7  9  1  0  0  0  0
  7 22  1  0  0  0  0
  8 23  1  0  0  0  0
  9 10  1  0  0  0  0
  9 15  2  0  0  0  0
 10 11  2  0  0  0  0
 10 24  1  0  0  0  0
 11 12  1  0  0  0  0
 11 25  1  0  0  0  0
 12 13  2  0  0  0  0
 12 26  1  0  0  0  0
 13 14  1  0  0  0  0
 13 15  1  0  0  0  0
 15 27  1  0  0  0  0
M  END
>  <Line_Number>
88


> <IC50>
71200

$$$$
