155540829.0
 OpenBabel09092522103D

 27 27  0  0  1  0  0  0  0  0999 V2000
    1.1092    1.4180   -1.1971 C   0  0  0  0  0  0  0  0  0  0  0  0
    2.5428    1.3122   -1.0228 N   0  0  0  0  0  0  0  0  0  0  0  0
    3.2184    2.4900   -1.4110 O   0  0  0  0  0  0  0  0  0  0  0  0
    3.2079    0.1075   -1.1989 C   0  0  0  0  0  0  0  0  0  0  0  0
    2.6211   -0.9721   -1.2948 O   0  0  0  0  0  0  0  0  0  0  0  0
    4.7215    0.1666   -1.2096 C   0  0  0  0  0  0  0  0  0  0  0  0
    5.2967    0.3009   -2.6230 C   0  0  3  0  0  0  0  0  0  0  0  0
    4.9971    1.5541   -3.2359 O   0  0  0  0  0  0  0  0  0  0  0  0
    6.8127    0.2167   -2.6122 C   0  0  0  0  0  0  0  0  0  0  0  0
    7.4913   -0.7827   -3.3256 C   0  0  0  0  0  0  0  0  0  0  0  0
    8.8901   -0.8262   -3.3347 C   0  0  0  0  0  0  0  0  0  0  0  0
    9.6283    0.1246   -2.6295 C   0  0  0  0  0  0  0  0  0  0  0  0
    8.9682    1.1210   -1.9211 C   0  0  0  0  0  0  0  0  0  0  0  0
    9.8660    2.3045   -1.0548 Cl  0  0  0  0  0  0  0  0  0  0  0  0
    7.5727    1.1728   -1.9124 C   0  0  0  0  0  0  0  0  0  0  0  0
    0.7884    2.4458   -1.0067 H   0  0  0  0  0  0  0  0  0  0  0  0
    0.6215    0.7457   -0.4852 H   0  0  0  0  0  0  0  0  0  0  0  0
    0.8361    1.1206   -2.2135 H   0  0  0  0  0  0  0  0  0  0  0  0
    3.0854    3.0574   -0.6253 H   0  0  0  0  0  0  0  0  0  0  0  0
    5.0785   -0.7593   -0.7418 H   0  0  0  0  0  0  0  0  0  0  0  0
    5.0420    0.9851   -0.5551 H   0  0  0  0  0  0  0  0  0  0  0  0
    4.8801   -0.4811   -3.2692 H   0  0  0  0  0  0  0  0  0  0  0  0
    4.3825    2.0439   -2.6573 H   0  0  0  0  0  0  0  0  0  0  0  0
    6.9372   -1.5251   -3.8964 H   0  0  0  0  0  0  0  0  0  0  0  0
    9.4057   -1.5975   -3.9018 H   0  0  0  0  0  0  0  0  0  0  0  0
   10.7141    0.0903   -2.6459 H   0  0  0  0  0  0  0  0  0  0  0  0
    7.0720    1.9760   -1.3780 H   0  0  0  0  0  0  0  0  0  0  0  0
  1  2  1  0  0  0  0
  1 16  1  0  0  0  0
  1 17  1  0  0  0  0
  1 18  1  0  0  0  0
  2  3  1  0  0  0  0
  2  4  1  0  0  0  0
  3 19  1  0  0  0  0
  4  5  2  0  0  0  0
  4  6  1  0  0  0  0
  6  7  1  0  0  0  0
  6 20  1  0  0  0  0
  6 21  1  0  0  0  0
  7  8  1  0  0  0  0
  7  9  1  0  0  0  0
  7 22  1  0  0  0  0
  8 23  1  0  0  0  0
  9 10  1  0  0  0  0
  9 15  2  0  0  0  0
 10 11  2  0  0  0  0
 10 24  1  0  0  0  0
 11 12  1  0  0  0  0
 11 25  1  0  0  0  0
 12 13  2  0  0  0  0
 12 26  1  0  0  0  0
 13 14  1  0  0  0  0
 13 15  1  0  0  0  0
 15 27  1  0  0  0  0
M  END
>  <Line_Number>
89


> <IC50>
48000

$$$$
