16745298.0
 OpenBabel09092522103D

 32 33  0  0  0  0  0  0  0  0999 V2000
    2.3245   -0.1304    0.3007 O   0  0  0  0  0  0  0  0  0  0  0  0
    0.9662   -0.0989    0.1825 C   0  0  0  0  0  0  0  0  0  0  0  0
    0.3443   -0.0861   -1.0619 C   0  0  0  0  0  0  0  0  0  0  0  0
   -1.0511   -0.0442   -1.1344 C   0  0  0  0  0  0  0  0  0  0  0  0
   -1.8267   -0.0067    0.0336 C   0  0  0  0  0  0  0  0  0  0  0  0
   -3.3357    0.0558   -0.0467 C   0  0  0  0  0  0  0  0  0  0  0  0
   -3.9808   -1.3333   -0.0314 C   0  0  0  0  0  0  0  0  0  0  0  0
   -5.4892   -1.2690   -0.1181 C   0  0  0  0  0  0  0  0  0  0  0  0
   -6.2696   -1.2398    1.0536 C   0  0  0  0  0  0  0  0  0  0  0  0
   -7.6705   -1.1929    0.9921 C   0  0  0  0  0  0  0  0  0  0  0  0
   -8.2979   -1.1711   -0.2477 C   0  0  0  0  0  0  0  0  0  0  0  0
   -9.6583   -1.1320   -0.3761 O   0  0  0  0  0  0  0  0  0  0  0  0
   -7.5385   -1.1892   -1.4111 C   0  0  0  0  0  0  0  0  0  0  0  0
   -8.1490   -1.1709   -2.6378 O   0  0  0  0  0  0  0  0  0  0  0  0
   -6.1482   -1.2312   -1.3492 C   0  0  0  0  0  0  0  0  0  0  0  0
   -5.4366   -1.2402   -2.5171 O   0  0  0  0  0  0  0  0  0  0  0  0
   -1.1796   -0.0341    1.2777 C   0  0  0  0  0  0  0  0  0  0  0  0
    0.2143   -0.0781    1.3507 C   0  0  0  0  0  0  0  0  0  0  0  0
    2.7113   -0.1218   -0.5900 H   0  0  0  0  0  0  0  0  0  0  0  0
    0.9236   -0.1055   -1.9800 H   0  0  0  0  0  0  0  0  0  0  0  0
   -1.5329   -0.0343   -2.1103 H   0  0  0  0  0  0  0  0  0  0  0  0
   -3.6254    0.6045   -0.9522 H   0  0  0  0  0  0  0  0  0  0  0  0
   -3.7120    0.6572    0.7915 H   0  0  0  0  0  0  0  0  0  0  0  0
   -3.6969   -1.8722    0.8822 H   0  0  0  0  0  0  0  0  0  0  0  0
   -3.5926   -1.9450   -0.8560 H   0  0  0  0  0  0  0  0  0  0  0  0
   -5.7856   -1.2611    2.0286 H   0  0  0  0  0  0  0  0  0  0  0  0
   -8.2423   -1.1795    1.9147 H   0  0  0  0  0  0  0  0  0  0  0  0
  -10.0470   -1.1137    0.5159 H   0  0  0  0  0  0  0  0  0  0  0  0
   -9.1053   -1.1576   -2.4261 H   0  0  0  0  0  0  0  0  0  0  0  0
   -6.1208   -1.2312   -3.2176 H   0  0  0  0  0  0  0  0  0  0  0  0
   -1.7564   -0.0139    2.1990 H   0  0  0  0  0  0  0  0  0  0  0  0
    0.7127   -0.0911    2.3158 H   0  0  0  0  0  0  0  0  0  0  0  0
  1  2  1  0  0  0  0
  1 19  1  0  0  0  0
  2  3  1  0  0  0  0
  2 18  2  0  0  0  0
  3  4  2  0  0  0  0
  3 20  1  0  0  0  0
  4  5  1  0  0  0  0
  4 21  1  0  0  0  0
  5  6  1  0  0  0  0
  5 17  2  0  0  0  0
  6  7  1  0  0  0  0
  6 22  1  0  0  0  0
  6 23  1  0  0  0  0
  7  8  1  0  0  0  0
  7 24  1  0  0  0  0
  7 25  1  0  0  0  0
  8  9  1  0  0  0  0
  8 15  2  0  0  0  0
  9 10  2  0  0  0  0
  9 26  1  0  0  0  0
 10 11  1  0  0  0  0
 10 27  1  0  0  0  0
 11 12  1  0  0  0  0
 11 13  2  0  0  0  0
 12 28  1  0  0  0  0
 13 14  1  0  0  0  0
 13 15  1  0  0  0  0
 14 29  1  0  0  0  0
 15 16  1  0  0  0  0
 16 30  1  0  0  0  0
 17 18  1  0  0  0  0
 17 31  1  0  0  0  0
 18 32  1  0  0  0  0
M  END
>  <Line_Number>
8


> <IC50>
32000

$$$$
