71727108.0
 OpenBabel09092522103D

 27 27  0  0  1  0  0  0  0  0999 V2000
    1.0329   -1.6763    1.0743 C   0  0  0  0  0  0  0  0  0  0  0  0
    2.4743   -1.4896    1.0575 N   0  0  0  0  0  0  0  0  0  0  0  0
    3.2649   -2.6495    0.9140 O   0  0  0  0  0  0  0  0  0  0  0  0
    3.0849   -0.2843    1.3325 C   0  0  0  0  0  0  0  0  0  0  0  0
    2.4281    0.7402    1.5539 O   0  0  0  0  0  0  0  0  0  0  0  0
    4.5939   -0.2578    1.3328 C   0  0  0  0  0  0  0  0  0  0  0  0
    5.1518   -0.5292    2.7302 C   0  0  3  0  0  0  0  0  0  0  0  0
    4.7675   -1.8133    3.2310 O   0  0  0  0  0  0  0  0  0  0  0  0
    6.6722   -0.4590    2.7413 C   0  0  0  0  0  0  0  0  0  0  0  0
    7.4196   -1.6249    2.4794 C   0  0  0  0  0  0  0  0  0  0  0  0
    8.8133   -1.6259    2.4987 C   0  0  0  0  0  0  0  0  0  0  0  0
    9.4936   -0.4438    2.7540 C   0  0  0  0  0  0  0  0  0  0  0  0
    8.7885    0.7365    2.9821 C   0  0  0  0  0  0  0  0  0  0  0  0
    9.7240    2.1660    3.2690 Cl  0  0  0  0  0  0  0  0  0  0  0  0
    7.3788    0.7403    2.9773 C   0  0  0  0  0  0  0  0  0  0  0  0
    6.5158    2.2216    3.2516 Cl  0  0  0  0  0  0  0  0  0  0  0  0
    0.7584   -2.7011    0.8143 H   0  0  0  0  0  0  0  0  0  0  0  0
    0.5900   -0.9797    0.3565 H   0  0  0  0  0  0  0  0  0  0  0  0
    0.6572   -1.4292    2.0695 H   0  0  0  0  0  0  0  0  0  0  0  0
    2.6591   -3.3047    0.5167 H   0  0  0  0  0  0  0  0  0  0  0  0
    4.8991    0.7294    0.9713 H   0  0  0  0  0  0  0  0  0  0  0  0
    4.9790   -0.9803    0.5964 H   0  0  0  0  0  0  0  0  0  0  0  0
    4.7325    0.1870    3.4486 H   0  0  0  0  0  0  0  0  0  0  0  0
    4.6823   -2.4161    2.4689 H   0  0  0  0  0  0  0  0  0  0  0  0
    6.9145   -2.5735    2.2832 H   0  0  0  0  0  0  0  0  0  0  0  0
    9.3578   -2.5461    2.3213 H   0  0  0  0  0  0  0  0  0  0  0  0
   10.5822   -0.4501    2.7702 H   0  0  0  0  0  0  0  0  0  0  0  0
  1  2  1  0  0  0  0
  1 17  1  0  0  0  0
  1 18  1  0  0  0  0
  1 19  1  0  0  0  0
  2  3  1  0  0  0  0
  2  4  1  0  0  0  0
  3 20  1  0  0  0  0
  4  5  2  0  0  0  0
  4  6  1  0  0  0  0
  6  7  1  0  0  0  0
  6 21  1  0  0  0  0
  6 22  1  0  0  0  0
  7  8  1  0  0  0  0
  7  9  1  0  0  0  0
  7 23  1  0  0  0  0
  8 24  1  0  0  0  0
  9 10  1  0  0  0  0
  9 15  2  0  0  0  0
 10 11  2  0  0  0  0
 10 25  1  0  0  0  0
 11 12  1  0  0  0  0
 11 26  1  0  0  0  0
 12 13  2  0  0  0  0
 12 27  1  0  0  0  0
 13 14  1  0  0  0  0
 13 15  1  0  0  0  0
 15 16  1  0  0  0  0
M  END
>  <Line_Number>
90


> <IC50>
95800

$$$$
