155557124.0
 OpenBabel09092522103D

 27 27  0  0  1  0  0  0  0  0999 V2000
    0.9480   -2.1573   -0.9282 C   0  0  0  0  0  0  0  0  0  0  0  0
    2.3935   -2.1556   -1.0283 N   0  0  0  0  0  0  0  0  0  0  0  0
    2.9768   -3.0777   -0.1318 O   0  0  0  0  0  0  0  0  0  0  0  0
    3.0776   -0.9668   -1.2047 C   0  0  0  0  0  0  0  0  0  0  0  0
    2.5227    0.0788   -1.5527 O   0  0  0  0  0  0  0  0  0  0  0  0
    4.5848   -1.0026   -1.0417 C   0  0  0  0  0  0  0  0  0  0  0  0
    5.2187   -1.8831   -2.1182 C   0  0  3  0  0  0  0  0  0  0  0  0
    4.8540   -1.4460   -3.4348 O   0  0  0  0  0  0  0  0  0  0  0  0
    6.7351   -1.9120   -2.0224 C   0  0  0  0  0  0  0  0  0  0  0  0
    7.5089   -1.0063   -2.7777 C   0  0  0  0  0  0  0  0  0  0  0  0
    8.9014   -1.0252   -2.7288 C   0  0  0  0  0  0  0  0  0  0  0  0
    9.5588   -1.9405   -1.9163 C   0  0  0  0  0  0  0  0  0  0  0  0
    8.8171   -2.8330   -1.1457 C   0  0  0  0  0  0  0  0  0  0  0  0
    7.4189   -2.8202   -1.1910 C   0  0  0  0  0  0  0  0  0  0  0  0
    6.5818   -3.9560   -0.1932 Cl  0  0  0  0  0  0  0  0  0  0  0  0
    0.5906   -3.1860   -0.8295 H   0  0  0  0  0  0  0  0  0  0  0  0
    0.5299   -1.7089   -1.8346 H   0  0  0  0  0  0  0  0  0  0  0  0
    0.6401   -1.5658   -0.0627 H   0  0  0  0  0  0  0  0  0  0  0  0
    3.0668   -3.8696   -0.6967 H   0  0  0  0  0  0  0  0  0  0  0  0
    4.8399   -1.3282   -0.0275 H   0  0  0  0  0  0  0  0  0  0  0  0
    4.9457    0.0305   -1.1374 H   0  0  0  0  0  0  0  0  0  0  0  0
    4.8399   -2.9078   -2.0556 H   0  0  0  0  0  0  0  0  0  0  0  0
    4.5842   -0.5122   -3.3896 H   0  0  0  0  0  0  0  0  0  0  0  0
    7.0239   -0.2858   -3.4352 H   0  0  0  0  0  0  0  0  0  0  0  0
    9.4737   -0.3269   -3.3393 H   0  0  0  0  0  0  0  0  0  0  0  0
   10.6452   -1.9620   -1.8855 H   0  0  0  0  0  0  0  0  0  0  0  0
    9.3385   -3.5453   -0.5071 H   0  0  0  0  0  0  0  0  0  0  0  0
  1  2  1  0  0  0  0
  1 16  1  0  0  0  0
  1 17  1  0  0  0  0
  1 18  1  0  0  0  0
  2  3  1  0  0  0  0
  2  4  1  0  0  0  0
  3 19  1  0  0  0  0
  4  5  2  0  0  0  0
  4  6  1  0  0  0  0
  6  7  1  0  0  0  0
  6 20  1  0  0  0  0
  6 21  1  0  0  0  0
  7  8  1  0  0  0  0
  7  9  1  0  0  0  0
  7 22  1  0  0  0  0
  8 23  1  0  0  0  0
  9 10  1  0  0  0  0
  9 14  2  0  0  0  0
 10 11  2  0  0  0  0
 10 24  1  0  0  0  0
 11 12  1  0  0  0  0
 11 25  1  0  0  0  0
 12 13  2  0  0  0  0
 12 26  1  0  0  0  0
 13 14  1  0  0  0  0
 13 27  1  0  0  0  0
 14 15  1  0  0  0  0
M  END
>  <Line_Number>
91


> <IC50>
56600

$$$$
