155538391.0
 OpenBabel09092522103D

 45 46  0  0  1  0  0  0  0  0999 V2000
    2.0231    0.3867    1.2690 C   0  0  0  0  0  0  0  0  0  0  0  0
    2.4675    0.0052   -0.0323 O   0  0  0  0  0  0  0  0  0  0  0  0
    3.0740    1.0042   -0.7562 C   0  0  0  0  0  0  0  0  0  0  0  0
    2.6513    2.3405   -0.6796 C   0  0  0  0  0  0  0  0  0  0  0  0
    3.2769    3.3490   -1.4271 C   0  0  0  0  0  0  0  0  0  0  0  0
    2.8406    4.7969   -1.3498 C   0  0  3  0  0  0  0  0  0  0  0  0
    1.4956    4.9270   -1.8293 O   0  0  0  0  0  0  0  0  0  0  0  0
    2.8706    5.3857    0.0557 C   0  0  0  0  0  0  0  0  0  0  0  0
    4.2371    5.3800    0.6996 C   0  0  0  0  0  0  0  0  0  0  0  0
    5.2709    5.0320    0.1196 O   0  0  0  0  0  0  0  0  0  0  0  0
    4.2728    5.8069    2.0034 N   0  0  0  0  0  0  0  0  0  0  0  0
    3.2418    6.3759    2.8487 C   0  0  0  0  0  0  0  0  0  0  0  0
    5.5304    5.7394    2.6515 O   0  0  0  0  0  0  0  0  0  0  0  0
    4.3604    3.0026   -2.2364 C   0  0  0  0  0  0  0  0  0  0  0  0
    4.7782    1.6774   -2.3342 C   0  0  0  0  0  0  0  0  0  0  0  0
    4.1051    0.6578   -1.6469 C   0  0  0  0  0  0  0  0  0  0  0  0
    4.4133   -0.6773   -1.8066 O   0  0  0  0  0  0  0  0  0  0  0  0
    5.1082   -0.9777   -3.0259 C   0  0  0  0  0  0  0  0  0  0  0  0
    5.0151   -2.4249   -3.4444 C   0  0  0  0  0  0  0  0  0  0  0  0
    3.9347   -3.2352   -3.0737 C   0  0  0  0  0  0  0  0  0  0  0  0
    3.8208   -4.5321   -3.5791 C   0  0  0  0  0  0  0  0  0  0  0  0
    4.7785   -5.0299   -4.4634 C   0  0  0  0  0  0  0  0  0  0  0  0
    5.8544   -4.2331   -4.8452 C   0  0  0  0  0  0  0  0  0  0  0  0
    5.9716   -2.9363   -4.3402 C   0  0  0  0  0  0  0  0  0  0  0  0
    1.6276   -0.5020    1.7710 H   0  0  0  0  0  0  0  0  0  0  0  0
    1.2012    1.1104    1.2309 H   0  0  0  0  0  0  0  0  0  0  0  0
    2.8504    0.7777    1.8737 H   0  0  0  0  0  0  0  0  0  0  0  0
    1.8128    2.6131   -0.0492 H   0  0  0  0  0  0  0  0  0  0  0  0
    3.4637    5.4098   -2.0117 H   0  0  0  0  0  0  0  0  0  0  0  0
    1.0356    4.0818   -1.6935 H   0  0  0  0  0  0  0  0  0  0  0  0
    2.1695    4.8433    0.7021 H   0  0  0  0  0  0  0  0  0  0  0  0
    2.5123    6.4241    0.0044 H   0  0  0  0  0  0  0  0  0  0  0  0
    2.3073    6.5255    2.3033 H   0  0  0  0  0  0  0  0  0  0  0  0
    3.5915    7.3407    3.2284 H   0  0  0  0  0  0  0  0  0  0  0  0
    3.0679    5.6974    3.6874 H   0  0  0  0  0  0  0  0  0  0  0  0
    6.0762    5.2866    1.9741 H   0  0  0  0  0  0  0  0  0  0  0  0
    4.9031    3.7657   -2.7919 H   0  0  0  0  0  0  0  0  0  0  0  0
    5.6392    1.4756   -2.9633 H   0  0  0  0  0  0  0  0  0  0  0  0
    6.1661   -0.7213   -2.8890 H   0  0  0  0  0  0  0  0  0  0  0  0
    4.6851   -0.4041   -3.8621 H   0  0  0  0  0  0  0  0  0  0  0  0
    3.1680   -2.8505   -2.4045 H   0  0  0  0  0  0  0  0  0  0  0  0
    2.9758   -5.1504   -3.2900 H   0  0  0  0  0  0  0  0  0  0  0  0
    4.6810   -6.0368   -4.8597 H   0  0  0  0  0  0  0  0  0  0  0  0
    6.5945   -4.6137   -5.5441 H   0  0  0  0  0  0  0  0  0  0  0  0
    6.8045   -2.3179   -4.6680 H   0  0  0  0  0  0  0  0  0  0  0  0
  1  2  1  0  0  0  0
  1 25  1  0  0  0  0
  1 26  1  0  0  0  0
  1 27  1  0  0  0  0
  2  3  1  0  0  0  0
  3  4  1  0  0  0  0
  3 16  2  0  0  0  0
  4  5  2  0  0  0  0
  4 28  1  0  0  0  0
  5  6  1  0  0  0  0
  5 14  1  0  0  0  0
  6  7  1  0  0  0  0
  6  8  1  0  0  0  0
  6 29  1  0  0  0  0
  7 30  1  0  0  0  0
  8  9  1  0  0  0  0
  8 31  1  0  0  0  0
  8 32  1  0  0  0  0
  9 10  2  0  0  0  0
  9 11  1  0  0  0  0
 11 12  1  0  0  0  0
 11 13  1  0  0  0  0
 12 33  1  0  0  0  0
 12 34  1  0  0  0  0
 12 35  1  0  0  0  0
 13 36  1  0  0  0  0
 14 15  2  0  0  0  0
 14 37  1  0  0  0  0
 15 16  1  0  0  0  0
 15 38  1  0  0  0  0
 16 17  1  0  0  0  0
 17 18  1  0  0  0  0
 18 19  1  0  0  0  0
 18 39  1  0  0  0  0
 18 40  1  0  0  0  0
 19 20  1  0  0  0  0
 19 24  2  0  0  0  0
 20 21  2  0  0  0  0
 20 41  1  0  0  0  0
 21 22  1  0  0  0  0
 21 42  1  0  0  0  0
 22 23  2  0  0  0  0
 22 43  1  0  0  0  0
 23 24  1  0  0  0  0
 23 44  1  0  0  0  0
 24 45  1  0  0  0  0
M  END
>  <Line_Number>
92


> <IC50>
258000

$$$$
