155512668.0
 OpenBabel09092522103D

 35 35  0  0  1  0  0  0  0  0999 V2000
    4.6532    3.8184    1.3592 C   0  0  0  0  0  0  0  0  0  0  0  0
    4.4059    2.4278    1.6846 N   0  0  0  0  0  0  0  0  0  0  0  0
    3.6879    2.2024    2.8644 O   0  0  0  0  0  0  0  0  0  0  0  0
    4.7394    1.3944    0.8515 C   0  0  0  0  0  0  0  0  0  0  0  0
    5.2082    1.5943   -0.2723 O   0  0  0  0  0  0  0  0  0  0  0  0
    4.5022   -0.0180    1.3393 C   0  0  0  0  0  0  0  0  0  0  0  0
    5.2538   -0.3950    2.6211 C   0  0  3  0  0  0  0  0  0  0  0  0
    4.8681   -1.7427    2.9441 O   0  0  0  0  0  0  0  0  0  0  0  0
    6.7706   -0.3190    2.6180 C   0  0  0  0  0  0  0  0  0  0  0  0
    7.5326   -0.0288    1.4879 C   0  0  0  0  0  0  0  0  0  0  0  0
    8.9298    0.0725    1.5639 C   0  0  0  0  0  0  0  0  0  0  0  0
    9.6421   -0.1307    2.7546 C   0  0  0  0  0  0  0  0  0  0  0  0
   11.0281   -0.0702    2.7768 N   0  0  0  0  0  0  0  0  0  0  0  0
   11.7424    0.9077    1.9571 C   0  0  0  0  0  0  0  0  0  0  0  0
   11.8083   -0.6434    3.8669 C   0  0  0  0  0  0  0  0  0  0  0  0
    8.8669   -0.4544    3.8764 C   0  0  0  0  0  0  0  0  0  0  0  0
    7.4647   -0.5446    3.8146 C   0  0  0  0  0  0  0  0  0  0  0  0
    4.2089    4.4824    2.1042 H   0  0  0  0  0  0  0  0  0  0  0  0
    4.2417    4.0302    0.3671 H   0  0  0  0  0  0  0  0  0  0  0  0
    5.7352    3.9764    1.3179 H   0  0  0  0  0  0  0  0  0  0  0  0
    2.9748    2.8661    2.8293 H   0  0  0  0  0  0  0  0  0  0  0  0
    4.7855   -0.7136    0.5329 H   0  0  0  0  0  0  0  0  0  0  0  0
    3.4240   -0.1675    1.4725 H   0  0  0  0  0  0  0  0  0  0  0  0
    4.8983    0.2265    3.4491 H   0  0  0  0  0  0  0  0  0  0  0  0
    5.5284   -2.3339    2.5419 H   0  0  0  0  0  0  0  0  0  0  0  0
    7.0807    0.1258    0.5127 H   0  0  0  0  0  0  0  0  0  0  0  0
    9.4560    0.2806    0.6364 H   0  0  0  0  0  0  0  0  0  0  0  0
   11.1314    1.4070    1.2003 H   0  0  0  0  0  0  0  0  0  0  0  0
   12.5707    0.4143    1.4371 H   0  0  0  0  0  0  0  0  0  0  0  0
   12.1625    1.6962    2.5921 H   0  0  0  0  0  0  0  0  0  0  0  0
   11.2908   -1.4483    4.3973 H   0  0  0  0  0  0  0  0  0  0  0  0
   12.0985    0.1298    4.5862 H   0  0  0  0  0  0  0  0  0  0  0  0
   12.7237   -1.0887    3.4601 H   0  0  0  0  0  0  0  0  0  0  0  0
    9.3316   -0.6265    4.8429 H   0  0  0  0  0  0  0  0  0  0  0  0
    6.9142   -0.7945    4.7211 H   0  0  0  0  0  0  0  0  0  0  0  0
  1  2  1  0  0  0  0
  1 18  1  0  0  0  0
  1 19  1  0  0  0  0
  1 20  1  0  0  0  0
  2  3  1  0  0  0  0
  2  4  1  0  0  0  0
  3 21  1  0  0  0  0
  4  5  2  0  0  0  0
  4  6  1  0  0  0  0
  6  7  1  0  0  0  0
  6 22  1  0  0  0  0
  6 23  1  0  0  0  0
  7  8  1  0  0  0  0
  7  9  1  0  0  0  0
  7 24  1  0  0  0  0
  8 25  1  0  0  0  0
  9 10  1  0  0  0  0
  9 17  2  0  0  0  0
 10 11  2  0  0  0  0
 10 26  1  0  0  0  0
 11 12  1  0  0  0  0
 11 27  1  0  0  0  0
 12 13  1  0  0  0  0
 12 16  2  0  0  0  0
 13 14  1  0  0  0  0
 13 15  1  0  0  0  0
 14 28  1  0  0  0  0
 14 29  1  0  0  0  0
 14 30  1  0  0  0  0
 15 31  1  0  0  0  0
 15 32  1  0  0  0  0
 15 33  1  0  0  0  0
 16 17  1  0  0  0  0
 16 34  1  0  0  0  0
 17 35  1  0  0  0  0
M  END
>  <Line_Number>
93


> <IC50>
287000

$$$$
