155523859.0
 OpenBabel09092522103D

 31 31  0  0  1  0  0  0  0  0999 V2000
    2.8539    0.5551    1.2737 C   0  0  0  0  0  0  0  0  0  0  0  0
    2.2575    0.3039    0.0083 O   0  0  0  0  0  0  0  0  0  0  0  0
    3.0821    0.3857   -1.0812 C   0  0  0  0  0  0  0  0  0  0  0  0
    4.4426    0.6876   -1.0563 C   0  0  0  0  0  0  0  0  0  0  0  0
    5.1666    0.7548   -2.2498 C   0  0  0  0  0  0  0  0  0  0  0  0
    4.5470    0.5338   -3.4876 C   0  0  0  0  0  0  0  0  0  0  0  0
    5.3509    0.6748   -4.7640 C   0  0  3  0  0  0  0  0  0  0  0  0
    5.3901   -0.5841   -5.4516 O   0  0  0  0  0  0  0  0  0  0  0  0
    4.7952    1.6967   -5.7494 C   0  0  0  0  0  0  0  0  0  0  0  0
    4.7532    3.1163   -5.2242 C   0  0  0  0  0  0  0  0  0  0  0  0
    5.1873    3.4540   -4.1227 O   0  0  0  0  0  0  0  0  0  0  0  0
    4.1790    4.0375   -6.0702 N   0  0  0  0  0  0  0  0  0  0  0  0
    3.6784    3.9137   -7.4238 C   0  0  0  0  0  0  0  0  0  0  0  0
    4.0369    5.3487   -5.5598 O   0  0  0  0  0  0  0  0  0  0  0  0
    3.1774    0.2172   -3.4998 C   0  0  0  0  0  0  0  0  0  0  0  0
    2.4580    0.1462   -2.3056 C   0  0  0  0  0  0  0  0  0  0  0  0
    2.0763    0.4549    2.0364 H   0  0  0  0  0  0  0  0  0  0  0  0
    3.2474    1.5758    1.3311 H   0  0  0  0  0  0  0  0  0  0  0  0
    3.6325   -0.1825    1.4935 H   0  0  0  0  0  0  0  0  0  0  0  0
    4.9699    0.8885   -0.1321 H   0  0  0  0  0  0  0  0  0  0  0  0
    6.2239    1.0154   -2.2050 H   0  0  0  0  0  0  0  0  0  0  0  0
    6.3901    0.9283   -4.5270 H   0  0  0  0  0  0  0  0  0  0  0  0
    4.5857   -1.0807   -5.2241 H   0  0  0  0  0  0  0  0  0  0  0  0
    3.7849    1.4065   -6.0623 H   0  0  0  0  0  0  0  0  0  0  0  0
    5.4208    1.6860   -6.6518 H   0  0  0  0  0  0  0  0  0  0  0  0
    3.8680    2.9206   -7.8342 H   0  0  0  0  0  0  0  0  0  0  0  0
    4.1744    4.6606   -8.0496 H   0  0  0  0  0  0  0  0  0  0  0  0
    2.6027    4.1049   -7.4153 H   0  0  0  0  0  0  0  0  0  0  0  0
    4.3432    5.2392   -4.6326 H   0  0  0  0  0  0  0  0  0  0  0  0
    2.6562    0.0397   -4.4343 H   0  0  0  0  0  0  0  0  0  0  0  0
    1.3979   -0.0889   -2.3316 H   0  0  0  0  0  0  0  0  0  0  0  0
  1  2  1  0  0  0  0
  1 17  1  0  0  0  0
  1 18  1  0  0  0  0
  1 19  1  0  0  0  0
  2  3  1  0  0  0  0
  3  4  1  0  0  0  0
  3 16  2  0  0  0  0
  4  5  2  0  0  0  0
  4 20  1  0  0  0  0
  5  6  1  0  0  0  0
  5 21  1  0  0  0  0
  6  7  1  0  0  0  0
  6 15  2  0  0  0  0
  7  8  1  0  0  0  0
  7  9  1  0  0  0  0
  7 22  1  0  0  0  0
  8 23  1  0  0  0  0
  9 10  1  0  0  0  0
  9 24  1  0  0  0  0
  9 25  1  0  0  0  0
 10 11  2  0  0  0  0
 10 12  1  0  0  0  0
 12 13  1  0  0  0  0
 12 14  1  0  0  0  0
 13 26  1  0  0  0  0
 13 27  1  0  0  0  0
 13 28  1  0  0  0  0
 14 29  1  0  0  0  0
 15 16  1  0  0  0  0
 15 30  1  0  0  0  0
 16 31  1  0  0  0  0
M  END
>  <Line_Number>
94


> <IC50>
328000

$$$$
