155536133.0
 OpenBabel09092522103D

 27 27  0  0  1  0  0  0  0  0999 V2000
    4.8683   -3.5816    1.0712 C   0  0  0  0  0  0  0  0  0  0  0  0
    4.6557   -2.7065   -0.0704 N   0  0  0  0  0  0  0  0  0  0  0  0
    3.7704   -3.1817   -1.0550 O   0  0  0  0  0  0  0  0  0  0  0  0
    4.8930   -1.3566   -0.0011 C   0  0  0  0  0  0  0  0  0  0  0  0
    5.3732   -0.8208    1.0048 O   0  0  0  0  0  0  0  0  0  0  0  0
    4.5875   -0.5316   -1.2389 C   0  0  0  0  0  0  0  0  0  0  0  0
    5.3106   -0.9938   -2.5047 C   0  0  3  0  0  0  0  0  0  0  0  0
    4.8556   -0.1526   -3.5777 O   0  0  0  0  0  0  0  0  0  0  0  0
    6.8317   -0.9828   -2.5149 C   0  0  0  0  0  0  0  0  0  0  0  0
    7.6179   -0.4996   -1.4587 C   0  0  0  0  0  0  0  0  0  0  0  0
    9.0139   -0.5634   -1.5135 C   0  0  0  0  0  0  0  0  0  0  0  0
    9.6436   -1.0853   -2.6386 C   0  0  0  0  0  0  0  0  0  0  0  0
   11.3606   -1.1528   -2.7036 Cl  0  0  0  0  0  0  0  0  0  0  0  0
    8.8882   -1.5499   -3.7096 C   0  0  0  0  0  0  0  0  0  0  0  0
    7.4926   -1.5027   -3.6449 C   0  0  0  0  0  0  0  0  0  0  0  0
    4.4552   -4.5771    0.8899 H   0  0  0  0  0  0  0  0  0  0  0  0
    4.4105   -3.1350    1.9579 H   0  0  0  0  0  0  0  0  0  0  0  0
    5.9464   -3.6560    1.2395 H   0  0  0  0  0  0  0  0  0  0  0  0
    3.2387   -3.8663   -0.6125 H   0  0  0  0  0  0  0  0  0  0  0  0
    4.8439    0.5167   -1.0277 H   0  0  0  0  0  0  0  0  0  0  0  0
    3.5012   -0.5296   -1.3969 H   0  0  0  0  0  0  0  0  0  0  0  0
    4.9927   -2.0092   -2.7608 H   0  0  0  0  0  0  0  0  0  0  0  0
    5.4114    0.6455   -3.5721 H   0  0  0  0  0  0  0  0  0  0  0  0
    7.1758   -0.0714   -0.5633 H   0  0  0  0  0  0  0  0  0  0  0  0
    9.5987   -0.2058   -0.6696 H   0  0  0  0  0  0  0  0  0  0  0  0
    9.3743   -1.9536   -4.5934 H   0  0  0  0  0  0  0  0  0  0  0  0
    6.9111   -1.8762   -4.4873 H   0  0  0  0  0  0  0  0  0  0  0  0
  1  2  1  0  0  0  0
  1 16  1  0  0  0  0
  1 17  1  0  0  0  0
  1 18  1  0  0  0  0
  2  3  1  0  0  0  0
  2  4  1  0  0  0  0
  3 19  1  0  0  0  0
  4  5  2  0  0  0  0
  4  6  1  0  0  0  0
  6  7  1  0  0  0  0
  6 20  1  0  0  0  0
  6 21  1  0  0  0  0
  7  8  1  0  0  0  0
  7  9  1  0  0  0  0
  7 22  1  0  0  0  0
  8 23  1  0  0  0  0
  9 10  1  0  0  0  0
  9 15  2  0  0  0  0
 10 11  2  0  0  0  0
 10 24  1  0  0  0  0
 11 12  1  0  0  0  0
 11 25  1  0  0  0  0
 12 13  1  0  0  0  0
 12 14  2  0  0  0  0
 14 15  1  0  0  0  0
 14 26  1  0  0  0  0
 15 27  1  0  0  0  0
M  END
>  <Line_Number>
96


> <IC50>
87400

$$$$
