155519422.0
 OpenBabel09092522103D

 35 35  0  0  1  0  0  0  0  0999 V2000
    0.9203   -0.1803    0.1574 C   0  0  0  0  0  0  0  0  0  0  0  0
    2.3040   -0.0082   -0.1296 O   0  0  0  0  0  0  0  0  0  0  0  0
    2.9655    0.9577    0.5826 C   0  0  0  0  0  0  0  0  0  0  0  0
    2.5680    1.3621    1.8607 C   0  0  0  0  0  0  0  0  0  0  0  0
    3.3151    2.2974    2.5834 C   0  0  0  0  0  0  0  0  0  0  0  0
    4.4796    2.8562    2.0459 C   0  0  0  0  0  0  0  0  0  0  0  0
    5.2530    3.8892    2.8416 C   0  0  3  0  0  0  0  0  0  0  0  0
    6.5610    3.3865    3.1506 O   0  0  0  0  0  0  0  0  0  0  0  0
    5.4478    5.2268    2.1323 C   0  0  0  0  0  0  0  0  0  0  0  0
    4.1577    5.9537    1.8358 C   0  0  0  0  0  0  0  0  0  0  0  0
    3.0526    5.5691    2.2139 O   0  0  0  0  0  0  0  0  0  0  0  0
    4.2796    7.1046    1.0932 N   0  0  0  0  0  0  0  0  0  0  0  0
    5.4527    7.8323    0.6480 C   0  0  0  0  0  0  0  0  0  0  0  0
    3.0768    7.7660    0.7584 O   0  0  0  0  0  0  0  0  0  0  0  0
    4.8834    2.4399    0.7706 C   0  0  0  0  0  0  0  0  0  0  0  0
    4.1356    1.5085    0.0340 C   0  0  0  0  0  0  0  0  0  0  0  0
    4.6983    1.2105   -1.1816 O   0  0  0  0  0  0  0  0  0  0  0  0
    3.7925    0.9178   -2.2386 C   0  0  0  0  0  0  0  0  0  0  0  0
    0.5131   -0.8800   -0.5797 H   0  0  0  0  0  0  0  0  0  0  0  0
    0.3743    0.7645    0.0569 H   0  0  0  0  0  0  0  0  0  0  0  0
    0.7664   -0.6234    1.1466 H   0  0  0  0  0  0  0  0  0  0  0  0
    1.6874    0.9495    2.3420 H   0  0  0  0  0  0  0  0  0  0  0  0
    2.9706    2.5920    3.5735 H   0  0  0  0  0  0  0  0  0  0  0  0
    4.7568    4.0640    3.8038 H   0  0  0  0  0  0  0  0  0  0  0  0
    6.7690    2.6684    2.5283 H   0  0  0  0  0  0  0  0  0  0  0  0
    6.0034    5.0817    1.1988 H   0  0  0  0  0  0  0  0  0  0  0  0
    6.0625    5.8734    2.7717 H   0  0  0  0  0  0  0  0  0  0  0  0
    6.3745    7.3680    1.0011 H   0  0  0  0  0  0  0  0  0  0  0  0
    5.3959    8.8546    1.0313 H   0  0  0  0  0  0  0  0  0  0  0  0
    5.4517    7.8562   -0.4450 H   0  0  0  0  0  0  0  0  0  0  0  0
    2.4016    7.1426    1.1091 H   0  0  0  0  0  0  0  0  0  0  0  0
    5.7881    2.8442    0.3204 H   0  0  0  0  0  0  0  0  0  0  0  0
    4.3194    1.0971   -3.1812 H   0  0  0  0  0  0  0  0  0  0  0  0
    2.9129    1.5708   -2.2252 H   0  0  0  0  0  0  0  0  0  0  0  0
    3.5097   -0.1385   -2.2237 H   0  0  0  0  0  0  0  0  0  0  0  0
  1  2  1  0  0  0  0
  1 19  1  0  0  0  0
  1 20  1  0  0  0  0
  1 21  1  0  0  0  0
  2  3  1  0  0  0  0
  3  4  1  0  0  0  0
  3 16  2  0  0  0  0
  4  5  2  0  0  0  0
  4 22  1  0  0  0  0
  5  6  1  0  0  0  0
  5 23  1  0  0  0  0
  6  7  1  0  0  0  0
  6 15  2  0  0  0  0
  7  8  1  0  0  0  0
  7  9  1  0  0  0  0
  7 24  1  0  0  0  0
  8 25  1  0  0  0  0
  9 10  1  0  0  0  0
  9 26  1  0  0  0  0
  9 27  1  0  0  0  0
 10 11  2  0  0  0  0
 10 12  1  0  0  0  0
 12 13  1  0  0  0  0
 12 14  1  0  0  0  0
 13 28  1  0  0  0  0
 13 29  1  0  0  0  0
 13 30  1  0  0  0  0
 14 31  1  0  0  0  0
 15 16  1  0  0  0  0
 15 32  1  0  0  0  0
 16 17  1  0  0  0  0
 17 18  1  0  0  0  0
 18 33  1  0  0  0  0
 18 34  1  0  0  0  0
 18 35  1  0  0  0  0
M  END
>  <Line_Number>
97


> <IC50>
405000

$$$$
