238945.0
 OpenBabel09092522103D

 27 27  0  0  0  0  0  0  0  0999 V2000
    5.1811    0.6983   -2.7756 C   0  0  0  0  0  0  0  0  0  0  0  0
    4.6079    0.3827   -1.4025 C   0  0  0  0  0  0  0  0  0  0  0  0
    5.0765    1.4078   -0.3699 C   0  0  0  0  0  0  0  0  0  0  0  0
    4.4920    1.1255    1.0180 C   0  0  0  0  0  0  0  0  0  0  0  0
    4.9239    2.1493    2.0426 C   0  0  0  0  0  0  0  0  0  0  0  0
    4.5924    3.5078    1.8634 C   0  0  0  0  0  0  0  0  0  0  0  0
    4.9623    4.4802    2.8007 C   0  0  0  0  0  0  0  0  0  0  0  0
    5.6551    4.0943    3.9396 C   0  0  0  0  0  0  0  0  0  0  0  0
    6.0273    4.9921    4.9005 O   0  0  0  0  0  0  0  0  0  0  0  0
    5.9864    2.7590    4.1336 C   0  0  0  0  0  0  0  0  0  0  0  0
    6.6686    2.3720    5.2578 O   0  0  0  0  0  0  0  0  0  0  0  0
    5.6257    1.7943    3.1967 C   0  0  0  0  0  0  0  0  0  0  0  0
    5.9779    0.4923    3.4318 O   0  0  0  0  0  0  0  0  0  0  0  0
    4.8398   -0.0374   -3.5101 H   0  0  0  0  0  0  0  0  0  0  0  0
    6.2756    0.6794   -2.7560 H   0  0  0  0  0  0  0  0  0  0  0  0
    4.8624    1.6898   -3.1141 H   0  0  0  0  0  0  0  0  0  0  0  0
    4.9186   -0.6236   -1.1010 H   0  0  0  0  0  0  0  0  0  0  0  0
    3.5135    0.3843   -1.4602 H   0  0  0  0  0  0  0  0  0  0  0  0
    4.7832    2.4079   -0.7112 H   0  0  0  0  0  0  0  0  0  0  0  0
    6.1726    1.4028   -0.3148 H   0  0  0  0  0  0  0  0  0  0  0  0
    4.7844    0.1155    1.3281 H   0  0  0  0  0  0  0  0  0  0  0  0
    3.3950    1.1248    0.9748 H   0  0  0  0  0  0  0  0  0  0  0  0
    4.0370    3.8185    0.9804 H   0  0  0  0  0  0  0  0  0  0  0  0
    4.6975    5.5165    2.6206 H   0  0  0  0  0  0  0  0  0  0  0  0
    5.6929    5.8678    4.6386 H   0  0  0  0  0  0  0  0  0  0  0  0
    6.7969    3.2065    5.7541 H   0  0  0  0  0  0  0  0  0  0  0  0
    6.4542    0.5188    4.2851 H   0  0  0  0  0  0  0  0  0  0  0  0
  1  2  1  0  0  0  0
  1 14  1  0  0  0  0
  1 15  1  0  0  0  0
  1 16  1  0  0  0  0
  2  3  1  0  0  0  0
  2 17  1  0  0  0  0
  2 18  1  0  0  0  0
  3  4  1  0  0  0  0
  3 19  1  0  0  0  0
  3 20  1  0  0  0  0
  4  5  1  0  0  0  0
  4 21  1  0  0  0  0
  4 22  1  0  0  0  0
  5  6  1  0  0  0  0
  5 12  2  0  0  0  0
  6  7  2  0  0  0  0
  6 23  1  0  0  0  0
  7  8  1  0  0  0  0
  7 24  1  0  0  0  0
  8  9  1  0  0  0  0
  8 10  2  0  0  0  0
  9 25  1  0  0  0  0
 10 11  1  0  0  0  0
 10 12  1  0  0  0  0
 11 26  1  0  0  0  0
 12 13  1  0  0  0  0
 13 27  1  0  0  0  0
M  END
>  <Line_Number>
9


> <IC50>
79000

$$$$
