REMARK  6 active torsions:
REMARK  status: ('A' for Active; 'I' for Inactive)
REMARK    1  A    between atoms: O_2  and  C_3 
REMARK    2  A    between atoms: C_7  and  C_8 
REMARK    3  A    between atoms: C_8  and  O_9 
REMARK    4  A    between atoms: C_8  and  C_10 
REMARK    5  A    between atoms: C_10  and  C_11 
REMARK       I    between atoms: C_11  and  N_13 
REMARK    6  A    between atoms: N_13  and  O_15 
ROOT
HETATM    1  C   UNL     1       6.539  -1.017   2.279  1.00  0.00     0.160 C 
ENDROOT
BRANCH   1   2
HETATM    2  C   UNL     1       5.105  -1.407   1.979  1.00  0.00    -0.027 A 
HETATM    3  C   UNL     1       4.598  -1.241   0.682  1.00  0.00     0.010 A 
HETATM    4  C   UNL     1       3.281  -1.592   0.382  1.00  0.00     0.003 A 
HETATM    5  C   UNL     1       2.443  -2.103   1.375  1.00  0.00     0.037 A 
HETATM    6  C   UNL     1       2.925  -2.267   2.673  1.00  0.00     0.068 A 
HETATM    7  C   UNL     1       4.253  -1.930   2.964  1.00  0.00     0.046 A 
BRANCH   6   8
HETATM    8  O   UNL     1       2.214  -2.736   3.743  1.00  0.00    -0.356 OA
HETATM    9  C   UNL     1       0.835  -3.006   3.526  1.00  0.00     0.210 C 
ENDBRANCH   6   8
ENDBRANCH   1   2
BRANCH   1  10
HETATM   10  O   UNL     1       6.564   0.028   3.265  1.00  0.00    -0.390 OA
HETATM   11  H   UNL     1       5.714   0.023   3.739  1.00  0.00     0.210 HD
ENDBRANCH   1  10
BRANCH   1  12
HETATM   12  C   UNL     1       7.417  -2.145   2.816  1.00  0.00     0.141 C 
BRANCH  12  13
HETATM   13  C   UNL     1       7.649  -3.261   1.825  1.00  0.00     0.245 C 
HETATM   14  O   UNL     1       7.242  -3.236   0.663  1.00  0.00    -0.271 OA
HETATM   15  N   UNL     1       8.357  -4.337   2.301  1.00  0.00    -0.233 N 
HETATM   16  C   UNL     1       9.063  -4.541   3.549  1.00  0.00     0.188 C 
BRANCH  15  17
HETATM   17  O   UNL     1       8.544  -5.411   1.398  1.00  0.00    -0.285 OA
HETATM   18  H   UNL     1       8.011  -5.120   0.626  1.00  0.00     0.245 HD
ENDBRANCH  15  17
ENDBRANCH  12  13
ENDBRANCH   1  12
TORSDOF 6
