REMARK  7 active torsions:
REMARK  status: ('A' for Active; 'I' for Inactive)
REMARK    1  A    between atoms: O_2  and  C_3 
REMARK    2  A    between atoms: C_5  and  O_6 
REMARK    3  A    between atoms: C_9  and  C_10 
REMARK       I    between atoms: C_10  and  N_12 
REMARK    4  A    between atoms: N_13  and  C_14 
REMARK    5  A    between atoms: C_15  and  O_16 
REMARK    6  A    between atoms: N_17  and  C_18 
REMARK    7  A    between atoms: C_18  and  C_19 
ROOT
HETATM    1  C   UNL     1       9.374   4.428   1.412  1.00  0.00     0.142 C 
HETATM    2  C   UNL     1       9.096   5.357   0.428  1.00  0.00     0.175 C 
HETATM    3  N   UNL     1      10.288   5.641  -0.184  1.00  0.00    -0.322 N 
HETATM    4  C   UNL     1      11.339   5.158   0.571  1.00  0.00     0.049 A 
HETATM    5  C   UNL     1      12.726   5.280   0.387  1.00  0.00     0.031 A 
HETATM    6  C   UNL     1      13.567   4.716   1.347  1.00  0.00     0.002 A 
HETATM    7  C   UNL     1      13.042   4.030   2.439  1.00  0.00     0.001 A 
HETATM    8  C   UNL     1      11.657   3.846   2.573  1.00  0.00     0.016 A 
HETATM    9  C   UNL     1      10.782   4.421   1.626  1.00  0.00     0.026 A 
ENDROOT
BRANCH   1  10
HETATM   10  N   UNL     1       8.435   3.556   2.005  1.00  0.00    -0.141 NA
HETATM   11  N   UNL     1       7.264   3.980   1.897  1.00  0.00    -0.105 NA
HETATM   12  C   UNL     1       6.375   3.072   1.338  1.00  0.00     0.295 C 
HETATM   13  O   UNL     1       6.651   2.007   0.799  1.00  0.00    -0.264 OA
BRANCH  12  14
HETATM   14  C   UNL     1       4.961   3.572   1.304  1.00  0.00     0.041 A 
HETATM   15  C   UNL     1       4.030   3.017   0.413  1.00  0.00     0.054 A 
HETATM   16  C   UNL     1       2.721   3.522   0.355  1.00  0.00     0.071 A 
HETATM   17  C   UNL     1       2.346   4.574   1.196  1.00  0.00     0.073 A 
HETATM   18  C   UNL     1       3.269   5.139   2.074  1.00  0.00     0.071 A 
HETATM   19  C   UNL     1       4.568   4.634   2.128  1.00  0.00     0.054 A 
BRANCH  16  20
HETATM   20  O   UNL     1       1.909   2.920  -0.568  1.00  0.00    -0.356 OA
HETATM   21  C   UNL     1       0.586   3.433  -0.705  1.00  0.00     0.210 C 
ENDBRANCH  16  20
BRANCH  18  22
HETATM   22  O   UNL     1       3.041   6.188   2.921  1.00  0.00    -0.356 OA
HETATM   23  C   UNL     1       1.748   6.781   2.892  1.00  0.00     0.210 C 
ENDBRANCH  18  22
ENDBRANCH  12  14
ENDBRANCH   1  10
BRANCH   2  24
HETATM   24  O   UNL     1       7.953   5.875  -0.013  1.00  0.00    -0.344 OA
HETATM   25  H   UNL     1       7.296   5.680   0.680  1.00  0.00     0.219 HD
ENDBRANCH   2  24
BRANCH   3  26
HETATM   26  C   UNL     1      10.392   6.207  -1.526  1.00  0.00     0.159 C 
BRANCH  26  27
HETATM   27  C   UNL     1      10.679   7.681  -1.542  1.00  0.00    -0.005 C 
HETATM   28  C   UNL     1      10.926   8.379  -2.670  1.00  0.00    -0.090 C 
HETATM   29  C   UNL     1      10.947   7.775  -4.050  1.00  0.00     0.042 C 
HETATM   30  C   UNL     1      11.189   9.859  -2.635  1.00  0.00     0.042 C 
ENDBRANCH  26  27
ENDBRANCH   3  26
TORSDOF 7
