REMARK  6 active torsions:
REMARK  status: ('A' for Active; 'I' for Inactive)
REMARK    1  A    between atoms: O_2  and  C_3 
REMARK    2  A    between atoms: C_7  and  C_8 
REMARK       I    between atoms: C_8  and  N_10 
REMARK    3  A    between atoms: N_11  and  C_12 
REMARK    4  A    between atoms: C_13  and  O_14 
REMARK    5  A    between atoms: N_15  and  C_16 
REMARK    6  A    between atoms: C_16  and  C_17 
ROOT
HETATM    1  C   UNL     1       8.755   2.069  -5.218  1.00  0.00     0.142 C 
HETATM    2  C   UNL     1       8.290   1.220  -6.202  1.00  0.00     0.175 C 
HETATM    3  N   UNL     1       9.391   0.641  -6.769  1.00  0.00    -0.322 N 
HETATM    4  C   UNL     1      10.534   1.317  -6.389  1.00  0.00     0.049 A 
HETATM    5  C   UNL     1      11.871   1.138  -6.777  1.00  0.00     0.031 A 
HETATM    6  C   UNL     1      12.827   2.010  -6.253  1.00  0.00     0.002 A 
HETATM    7  C   UNL     1      12.463   3.008  -5.352  1.00  0.00     0.001 A 
HETATM    8  C   UNL     1      11.138   3.128  -4.909  1.00  0.00     0.016 A 
HETATM    9  C   UNL     1      10.148   2.270  -5.435  1.00  0.00     0.026 A 
ENDROOT
BRANCH   1  10
HETATM   10  N   UNL     1       8.006   2.536  -4.116  1.00  0.00    -0.141 NA
HETATM   11  N   UNL     1       6.777   2.495  -4.333  1.00  0.00    -0.105 NA
HETATM   12  C   UNL     1       6.053   1.809  -3.370  1.00  0.00     0.295 C 
HETATM   13  O   UNL     1       6.496   1.123  -2.454  1.00  0.00    -0.264 OA
BRANCH  12  14
HETATM   14  C   UNL     1       4.566   1.850  -3.611  1.00  0.00     0.038 A 
HETATM   15  C   UNL     1       3.729   0.898  -3.022  1.00  0.00     0.017 A 
HETATM   16  C   UNL     1       2.356   0.919  -3.289  1.00  0.00     0.004 A 
HETATM   17  C   UNL     1       1.815   1.884  -4.144  1.00  0.00     0.037 A 
HETATM   18  C   UNL     1       2.646   2.832  -4.738  1.00  0.00     0.069 A 
HETATM   19  C   UNL     1       4.016   2.814  -4.466  1.00  0.00     0.054 A 
BRANCH  18  20
HETATM   20  O   UNL     1       2.262   3.816  -5.607  1.00  0.00    -0.356 OA
HETATM   21  C   UNL     1       0.884   3.880  -5.946  1.00  0.00     0.210 C 
ENDBRANCH  18  20
ENDBRANCH  12  14
ENDBRANCH   1  10
BRANCH   2  22
HETATM   22  O   UNL     1       7.059   0.862  -6.559  1.00  0.00    -0.344 OA
HETATM   23  H   UNL     1       6.469   1.531  -6.166  1.00  0.00     0.219 HD
ENDBRANCH   2  22
BRANCH   3  24
HETATM   24  C   UNL     1       9.348  -0.621  -7.497  1.00  0.00     0.159 C 
BRANCH  24  25
HETATM   25  C   UNL     1       9.375  -0.468  -8.991  1.00  0.00    -0.005 C 
HETATM   26  C   UNL     1       9.457  -1.509  -9.843  1.00  0.00    -0.090 C 
HETATM   27  C   UNL     1       9.532  -2.948  -9.404  1.00  0.00     0.042 C 
HETATM   28  C   UNL     1       9.465  -1.312 -11.334  1.00  0.00     0.042 C 
ENDBRANCH  24  25
ENDBRANCH   3  24
TORSDOF 6
