REMARK  5 active torsions:
REMARK  status: ('A' for Active; 'I' for Inactive)
REMARK    1  A    between atoms: C_4  and  C_5 
REMARK    2  A    between atoms: C_5  and  N_6 
REMARK    3  A    between atoms: C_7  and  O_8 
REMARK    4  A    between atoms: C_9  and  N_10 
REMARK       I    between atoms: N_11  and  C_12 
REMARK    5  A    between atoms: C_12  and  C_14 
ROOT
HETATM    1  N   UNL     1       5.037   1.495   2.267  1.00  0.00    -0.322 N 
HETATM    2  C   UNL     1       4.881   2.865   2.369  1.00  0.00     0.175 A 
HETATM    3  C   UNL     1       5.333   3.221   3.624  1.00  0.00     0.142 A 
HETATM    4  C   UNL     1       5.774   2.059   4.307  1.00  0.00     0.026 A 
HETATM    5  C   UNL     1       6.316   1.813   5.585  1.00  0.00     0.016 A 
HETATM    6  C   UNL     1       6.677   0.510   5.945  1.00  0.00     0.001 A 
HETATM    7  C   UNL     1       6.511  -0.541   5.050  1.00  0.00     0.002 A 
HETATM    8  C   UNL     1       5.973  -0.324   3.779  1.00  0.00     0.031 A 
HETATM    9  C   UNL     1       5.603   0.986   3.427  1.00  0.00     0.049 A 
ENDROOT
BRANCH   3  10
HETATM   10  N   UNL     1       5.369   4.501   4.205  1.00  0.00    -0.141 NA
HETATM   11  N   UNL     1       5.679   5.388   3.385  1.00  0.00    -0.105 NA
HETATM   12  C   UNL     1       5.753   6.645   3.946  1.00  0.00     0.295 C 
HETATM   13  O   UNL     1       5.713   6.918   5.145  1.00  0.00    -0.264 OA
BRANCH  12  14
HETATM   14  C   UNL     1       5.916   7.756   2.955  1.00  0.00     0.035 A 
HETATM   15  C   UNL     1       6.105   9.068   3.410  1.00  0.00     0.017 A 
HETATM   16  C   UNL     1       6.205  10.124   2.498  1.00  0.00     0.007 A 
HETATM   17  C   UNL     1       6.113   9.884   1.123  1.00  0.00    -0.062 A 
HETATM   18  C   UNL     1       6.141  11.013   0.134  1.00  0.00     0.048 C 
HETATM   19  C   UNL     1       5.965   8.569   0.668  1.00  0.00     0.007 A 
HETATM   20  C   UNL     1       5.865   7.511   1.575  1.00  0.00     0.017 A 
ENDBRANCH  12  14
ENDBRANCH   3  10
BRANCH   2  21
HETATM   21  O   UNL     1       4.379   3.630   1.395  1.00  0.00    -0.344 OA
HETATM   22  H   UNL     1       4.292   3.118   0.575  1.00  0.00     0.219 HD
ENDBRANCH   2  21
BRANCH   1  23
HETATM   23  C   UNL     1       4.628   0.662   1.137  1.00  0.00     0.159 C 
BRANCH  23  24
HETATM   24  C   UNL     1       5.716   0.540   0.106  1.00  0.00    -0.005 C 
HETATM   25  C   UNL     1       5.540   0.426  -1.225  1.00  0.00    -0.090 C 
HETATM   26  C   UNL     1       6.734   0.282  -2.131  1.00  0.00     0.042 C 
HETATM   27  C   UNL     1       4.182   0.387  -1.868  1.00  0.00     0.042 C 
ENDBRANCH  23  24
ENDBRANCH   1  23
TORSDOF 5
