REMARK  6 active torsions:
REMARK  status: ('A' for Active; 'I' for Inactive)
REMARK    1  A    between atoms: O_2  and  C_3 
REMARK    2  A    between atoms: C_6  and  C_7 
REMARK       I    between atoms: C_7  and  N_9 
REMARK    3  A    between atoms: N_10  and  C_11 
REMARK    4  A    between atoms: C_12  and  O_13 
REMARK    5  A    between atoms: N_14  and  C_15 
REMARK    6  A    between atoms: C_15  and  C_16 
ROOT
HETATM    1  C   UNL     1       5.655  -3.571   7.493  1.00  0.00     0.142 C 
HETATM    2  C   UNL     1       5.505  -2.375   8.150  1.00  0.00     0.175 C 
HETATM    3  N   UNL     1       6.260  -2.439   9.289  1.00  0.00    -0.322 N 
HETATM    4  C   UNL     1       6.742  -3.727   9.463  1.00  0.00     0.049 A 
HETATM    5  C   UNL     1       7.476  -4.295  10.516  1.00  0.00     0.031 A 
HETATM    6  C   UNL     1       7.782  -5.657  10.448  1.00  0.00     0.002 A 
HETATM    7  C   UNL     1       7.391  -6.424   9.355  1.00  0.00     0.001 A 
HETATM    8  C   UNL     1       6.701  -5.841   8.287  1.00  0.00     0.016 A 
HETATM    9  C   UNL     1       6.360  -4.471   8.335  1.00  0.00     0.026 A 
ENDROOT
BRANCH   1  10
HETATM   10  N   UNL     1       5.046  -3.754   6.255  1.00  0.00    -0.141 NA
HETATM   11  N   UNL     1       5.173  -4.873   5.736  1.00  0.00    -0.105 NA
HETATM   12  C   UNL     1       4.254  -5.007   4.716  1.00  0.00     0.295 C 
HETATM   13  O   UNL     1       3.522  -4.120   4.274  1.00  0.00    -0.264 OA
BRANCH  12  14
HETATM   14  C   UNL     1       4.093  -6.382   4.194  1.00  0.00     0.035 A 
HETATM   15  C   UNL     1       2.875  -6.715   3.587  1.00  0.00     0.020 A 
HETATM   16  C   UNL     1       2.651  -8.009   3.124  1.00  0.00     0.038 A 
HETATM   17  C   UNL     1       3.642  -8.982   3.260  1.00  0.00     0.068 A 
HETATM   18  C   UNL     1       4.863  -8.644   3.850  1.00  0.00     0.038 A 
HETATM   19  C   UNL     1       5.095  -7.350   4.322  1.00  0.00     0.020 A 
BRANCH  17  20
HETATM   20  O   UNL     1       3.537 -10.287   2.862  1.00  0.00    -0.356 OA
HETATM   21  C   UNL     1       2.292 -10.681   2.298  1.00  0.00     0.210 C 
ENDBRANCH  17  20
ENDBRANCH  12  14
ENDBRANCH   1  10
BRANCH   2  22
HETATM   22  O   UNL     1       4.783  -1.299   7.840  1.00  0.00    -0.344 OA
HETATM   23  H   UNL     1       4.238  -1.556   7.068  1.00  0.00     0.219 HD
ENDBRANCH   2  22
BRANCH   3  24
HETATM   24  C   UNL     1       6.591  -1.284  10.113  1.00  0.00     0.159 C 
BRANCH  24  25
HETATM   25  C   UNL     1       5.742  -1.142  11.348  1.00  0.00    -0.005 C 
HETATM   26  C   UNL     1       5.971  -0.217  12.306  1.00  0.00    -0.090 C 
HETATM   27  C   UNL     1       7.095   0.779  12.252  1.00  0.00     0.042 C 
HETATM   28  C   UNL     1       5.085  -0.093  13.516  1.00  0.00     0.042 C 
ENDBRANCH  24  25
ENDBRANCH   3  24
TORSDOF 6
