REMARK  6 active torsions:
REMARK  status: ('A' for Active; 'I' for Inactive)
REMARK    1  A    between atoms: O_2  and  C_3 
REMARK    2  A    between atoms: C_8  and  C_9 
REMARK       I    between atoms: C_9  and  N_11 
REMARK    3  A    between atoms: N_12  and  C_13 
REMARK    4  A    between atoms: C_14  and  O_15 
REMARK    5  A    between atoms: N_16  and  C_17 
REMARK    6  A    between atoms: C_17  and  C_18 
ROOT
HETATM    1  C   UNL     1       3.988  -0.687  -4.282  1.00  0.00     0.142 C 
HETATM    2  C   UNL     1       5.059  -1.510  -4.009  1.00  0.00     0.175 C 
HETATM    3  N   UNL     1       5.693  -1.744  -5.200  1.00  0.00    -0.322 N 
HETATM    4  C   UNL     1       4.885  -1.347  -6.250  1.00  0.00     0.049 A 
HETATM    5  C   UNL     1       5.079  -1.453  -7.637  1.00  0.00     0.031 A 
HETATM    6  C   UNL     1       4.068  -0.985  -8.476  1.00  0.00     0.002 A 
HETATM    7  C   UNL     1       2.914  -0.407  -7.950  1.00  0.00     0.001 A 
HETATM    8  C   UNL     1       2.765  -0.234  -6.564  1.00  0.00     0.016 A 
HETATM    9  C   UNL     1       3.766  -0.714  -5.689  1.00  0.00     0.026 A 
ENDROOT
BRANCH   1  10
HETATM   10  N   UNL     1       3.332   0.150  -3.356  1.00  0.00    -0.141 NA
HETATM   11  N   UNL     1       3.523  -0.219  -2.180  1.00  0.00    -0.105 NA
HETATM   12  C   UNL     1       3.967   0.776  -1.330  1.00  0.00     0.298 C 
HETATM   13  O   UNL     1       4.326   1.906  -1.659  1.00  0.00    -0.264 OA
BRANCH  12  14
HETATM   14  C   UNL     1       4.058   0.388   0.121  1.00  0.00     0.069 A 
HETATM   15  C   UNL     1       4.017  -0.949   0.574  1.00  0.00     0.084 A 
HETATM   16  C   UNL     1       3.980  -1.198   1.953  1.00  0.00     0.038 A 
HETATM   17  C   UNL     1       4.042  -0.149   2.873  1.00  0.00     0.003 A 
HETATM   18  C   UNL     1       4.164   1.162   2.429  1.00  0.00     0.001 A 
HETATM   19  C   UNL     1       4.173   1.431   1.060  1.00  0.00     0.020 A 
BRANCH  15  20
HETATM   20  O   UNL     1       4.038  -1.949  -0.365  1.00  0.00    -0.355 OA
HETATM   21  C   UNL     1       4.144  -3.294   0.092  1.00  0.00     0.210 C 
ENDBRANCH  15  20
ENDBRANCH  12  14
ENDBRANCH   1  10
BRANCH   2  22
HETATM   22  O   UNL     1       5.561  -1.969  -2.859  1.00  0.00    -0.344 OA
HETATM   23  H   UNL     1       4.874  -1.790  -2.183  1.00  0.00     0.219 HD
ENDBRANCH   2  22
BRANCH   3  24
HETATM   24  C   UNL     1       7.097  -2.121  -5.302  1.00  0.00     0.159 C 
BRANCH  24  25
HETATM   25  C   UNL     1       7.332  -3.579  -5.565  1.00  0.00    -0.005 C 
HETATM   26  C   UNL     1       8.551  -4.104  -5.793  1.00  0.00    -0.090 C 
HETATM   27  C   UNL     1       9.820  -3.291  -5.814  1.00  0.00     0.042 C 
HETATM   28  C   UNL     1       8.749  -5.574  -6.040  1.00  0.00     0.042 C 
ENDBRANCH  24  25
ENDBRANCH   3  24
TORSDOF 6
