REMARK  5 active torsions:
REMARK  status: ('A' for Active; 'I' for Inactive)
REMARK    1  A    between atoms: C_4  and  C_5 
REMARK    2  A    between atoms: C_5  and  N_6 
REMARK    3  A    between atoms: C_7  and  O_8 
REMARK    4  A    between atoms: C_9  and  N_10 
REMARK       I    between atoms: N_11  and  C_12 
REMARK    5  A    between atoms: C_12  and  C_14 
ROOT
HETATM    1  N   UNL     1       5.045   2.205   1.335  1.00  0.00    -0.322 N 
HETATM    2  C   UNL     1       4.689   3.482   0.938  1.00  0.00     0.175 A 
HETATM    3  C   UNL     1       5.205   4.345   1.889  1.00  0.00     0.142 A 
HETATM    4  C   UNL     1       5.891   3.593   2.877  1.00  0.00     0.026 A 
HETATM    5  C   UNL     1       6.591   3.922   4.058  1.00  0.00     0.016 A 
HETATM    6  C   UNL     1       7.194   2.909   4.811  1.00  0.00     0.001 A 
HETATM    7  C   UNL     1       7.111   1.582   4.403  1.00  0.00     0.002 A 
HETATM    8  C   UNL     1       6.417   1.229   3.242  1.00  0.00     0.031 A 
HETATM    9  C   UNL     1       5.806   2.253   2.496  1.00  0.00     0.049 A 
ENDROOT
BRANCH   3  10
HETATM   10  N   UNL     1       5.111   5.747   1.945  1.00  0.00    -0.141 NA
HETATM   11  N   UNL     1       4.980   6.282   0.826  1.00  0.00    -0.105 NA
HETATM   12  C   UNL     1       4.935   7.657   0.908  1.00  0.00     0.295 C 
HETATM   13  O   UNL     1       5.398   8.348   1.814  1.00  0.00    -0.264 OA
BRANCH  12  14
HETATM   14  C   UNL     1       4.294   8.339  -0.260  1.00  0.00     0.037 A 
HETATM   15  C   UNL     1       3.672   7.609  -1.285  1.00  0.00     0.017 A 
HETATM   16  C   UNL     1       3.101   8.272  -2.374  1.00  0.00     0.002 A 
HETATM   17  C   UNL     1       3.148   9.664  -2.448  1.00  0.00     0.019 A 
HETATM   18  C   UNL     1       3.758  10.391  -1.426  1.00  0.00     0.011 A 
HETATM   19 BR   UNL     1       3.826  12.277  -1.534  1.00  0.00    -0.051 Br
HETATM   20  C   UNL     1       4.325   9.739  -0.331  1.00  0.00     0.036 A 
ENDBRANCH  12  14
ENDBRANCH   3  10
BRANCH   2  21
HETATM   21  O   UNL     1       3.974   3.740  -0.157  1.00  0.00    -0.344 OA
HETATM   22  H   UNL     1       3.947   2.956  -0.729  1.00  0.00     0.219 HD
ENDBRANCH   2  21
BRANCH   1  23
HETATM   23  C   UNL     1       4.638   0.960   0.688  1.00  0.00     0.159 C 
BRANCH  23  24
HETATM   24  C   UNL     1       5.617   0.530  -0.369  1.00  0.00    -0.005 C 
HETATM   25  C   UNL     1       5.316  -0.101  -1.522  1.00  0.00    -0.090 C 
HETATM   26  C   UNL     1       6.417  -0.512  -2.463  1.00  0.00     0.042 C 
HETATM   27  C   UNL     1       3.911  -0.473  -1.905  1.00  0.00     0.042 C 
ENDBRANCH  23  24
ENDBRANCH   1  23
TORSDOF 5
