REMARK  5 active torsions:
REMARK  status: ('A' for Active; 'I' for Inactive)
REMARK    1  A    between atoms: C_4  and  C_5 
REMARK    2  A    between atoms: C_5  and  N_6 
REMARK    3  A    between atoms: C_7  and  O_8 
REMARK    4  A    between atoms: C_9  and  N_10 
REMARK       I    between atoms: N_11  and  C_12 
REMARK    5  A    between atoms: C_12  and  C_14 
ROOT
HETATM    1  N   UNL     1       5.190  -2.182   1.325  1.00  0.00    -0.322 N 
HETATM    2  C   UNL     1       5.993  -2.187   2.449  1.00  0.00     0.175 A 
HETATM    3  C   UNL     1       6.117  -3.509   2.839  1.00  0.00     0.142 A 
HETATM    4  C   UNL     1       5.398  -4.329   1.932  1.00  0.00     0.026 A 
HETATM    5  C   UNL     1       5.167  -5.717   1.824  1.00  0.00     0.016 A 
HETATM    6  C   UNL     1       4.394  -6.211   0.768  1.00  0.00     0.001 A 
HETATM    7  C   UNL     1       3.863  -5.347  -0.184  1.00  0.00     0.002 A 
HETATM    8  C   UNL     1       4.077  -3.969  -0.101  1.00  0.00     0.031 A 
HETATM    9  C   UNL     1       4.839  -3.478   0.974  1.00  0.00     0.049 A 
ENDROOT
BRANCH   3  10
HETATM   10  N   UNL     1       6.864  -4.036   3.908  1.00  0.00    -0.141 NA
HETATM   11  N   UNL     1       6.953  -3.252   4.873  1.00  0.00    -0.105 NA
HETATM   12  C   UNL     1       7.748  -3.727   5.894  1.00  0.00     0.295 C 
HETATM   13  O   UNL     1       8.331  -4.809   5.935  1.00  0.00    -0.264 OA
BRANCH  12  14
HETATM   14  C   UNL     1       7.880  -2.789   7.057  1.00  0.00     0.035 A 
HETATM   15  C   UNL     1       8.688  -3.145   8.148  1.00  0.00     0.018 A 
HETATM   16  C   UNL     1       8.805  -2.291   9.249  1.00  0.00     0.020 A 
HETATM   17  C   UNL     1       8.113  -1.080   9.263  1.00  0.00     0.011 A 
HETATM   18 BR   UNL     1       8.253   0.067  10.759  1.00  0.00    -0.051 Br
HETATM   19  C   UNL     1       7.315  -0.710   8.183  1.00  0.00     0.020 A 
HETATM   20  C   UNL     1       7.199  -1.561   7.080  1.00  0.00     0.018 A 
ENDBRANCH  12  14
ENDBRANCH   3  10
BRANCH   2  21
HETATM   21  O   UNL     1       6.508  -1.082   2.992  1.00  0.00    -0.344 OA
HETATM   22  H   UNL     1       6.453  -0.344   2.363  1.00  0.00     0.219 HD
ENDBRANCH   2  21
BRANCH   1  23
HETATM   23  C   UNL     1       4.713  -0.996   0.614  1.00  0.00     0.159 C 
BRANCH  23  24
HETATM   24  C   UNL     1       5.668  -0.567  -0.466  1.00  0.00    -0.005 C 
HETATM   25  C   UNL     1       5.833   0.693  -0.917  1.00  0.00    -0.090 C 
HETATM   26  C   UNL     1       6.833   0.979  -2.006  1.00  0.00     0.042 C 
HETATM   27  C   UNL     1       5.022   1.851  -0.408  1.00  0.00     0.042 C 
ENDBRANCH  23  24
ENDBRANCH   1  23
TORSDOF 5
