REMARK  5 active torsions:
REMARK  status: ('A' for Active; 'I' for Inactive)
REMARK    1  A    between atoms: C_4  and  C_5 
REMARK    2  A    between atoms: C_5  and  N_6 
REMARK    3  A    between atoms: C_7  and  O_8 
REMARK    4  A    between atoms: C_9  and  N_10 
REMARK       I    between atoms: N_11  and  C_12 
REMARK    5  A    between atoms: C_12  and  C_14 
ROOT
HETATM    1  N   UNL     1       5.200   0.380   2.511  1.00  0.00    -0.322 N 
HETATM    2  C   UNL     1       5.349   1.605   3.136  1.00  0.00     0.175 A 
HETATM    3  C   UNL     1       5.840   1.344   4.404  1.00  0.00     0.142 A 
HETATM    4  C   UNL     1       5.980  -0.061   4.565  1.00  0.00     0.026 A 
HETATM    5  C   UNL     1       6.416  -0.897   5.615  1.00  0.00     0.016 A 
HETATM    6  C   UNL     1       6.429  -2.285   5.437  1.00  0.00     0.001 A 
HETATM    7  C   UNL     1       6.018  -2.850   4.232  1.00  0.00     0.002 A 
HETATM    8  C   UNL     1       5.580  -2.043   3.181  1.00  0.00     0.031 A 
HETATM    9  C   UNL     1       5.568  -0.649   3.366  1.00  0.00     0.049 A 
ENDROOT
BRANCH   3  10
HETATM   10  N   UNL     1       6.203   2.265   5.404  1.00  0.00    -0.141 NA
HETATM   11  N   UNL     1       5.526   3.313   5.379  1.00  0.00    -0.105 NA
HETATM   12  C   UNL     1       5.937   4.246   6.310  1.00  0.00     0.295 C 
HETATM   13  O   UNL     1       6.824   4.103   7.150  1.00  0.00    -0.264 OA
BRANCH  12  14
HETATM   14  C   UNL     1       5.197   5.550   6.256  1.00  0.00     0.036 A 
HETATM   15  C   UNL     1       5.548   6.585   7.138  1.00  0.00     0.024 A 
HETATM   16  C   UNL     1       4.875   7.815   7.100  1.00  0.00    -0.061 A 
HETATM   17  C   UNL     1       5.249   8.938   8.024  1.00  0.00     0.048 C 
HETATM   18  C   UNL     1       3.837   7.999   6.176  1.00  0.00     0.013 A 
HETATM   19  C   UNL     1       3.473   6.978   5.292  1.00  0.00    -0.061 A 
HETATM   20  C   UNL     1       2.362   7.173   4.302  1.00  0.00     0.048 C 
HETATM   21  C   UNL     1       4.159   5.756   5.335  1.00  0.00     0.024 A 
ENDBRANCH  12  14
ENDBRANCH   3  10
BRANCH   2  22
HETATM   22  O   UNL     1       5.068   2.772   2.553  1.00  0.00    -0.344 OA
HETATM   23  H   UNL     1       4.594   2.630   1.718  1.00  0.00     0.219 HD
ENDBRANCH   2  22
BRANCH   1  24
HETATM   24  C   UNL     1       4.763   0.163   1.133  1.00  0.00     0.159 C 
BRANCH  24  25
HETATM   25  C   UNL     1       3.268   0.028   1.037  1.00  0.00    -0.005 C 
HETATM   26  C   UNL     1       2.506   0.408  -0.009  1.00  0.00    -0.090 C 
HETATM   27  C   UNL     1       1.016   0.195   0.027  1.00  0.00     0.042 C 
HETATM   28  C   UNL     1       3.087   1.005  -1.259  1.00  0.00     0.042 C 
ENDBRANCH  24  25
ENDBRANCH   1  24
TORSDOF 5
