REMARK  3 active torsions:
REMARK  status: ('A' for Active; 'I' for Inactive)
REMARK    1  A    between atoms: C_2  and  C_3 
REMARK    2  A    between atoms: C_6  and  O_7 
REMARK    3  A    between atoms: C_8  and  O_9 
ROOT
HETATM    1  C   UNL     1       2.981   1.404   0.284  1.00  0.00    -0.056 A 
HETATM    2  C   UNL     1       4.241   1.660   0.853  1.00  0.00     0.010 A 
HETATM    3  C   UNL     1       4.686   2.971   1.048  1.00  0.00     0.040 A 
HETATM    4  C   UNL     1       3.869   4.028   0.664  1.00  0.00     0.098 A 
HETATM    5  C   UNL     1       2.627   3.781   0.085  1.00  0.00     0.099 A 
HETATM    6  C   UNL     1       2.179   2.483  -0.112  1.00  0.00     0.046 A 
ENDROOT
BRANCH   1   7
HETATM    7  C   UNL     1       2.500  -0.012   0.092  1.00  0.00     0.034 C 
HETATM    8  C   UNL     1       2.903  -0.581  -1.260  1.00  0.00     0.010 C 
ENDBRANCH   1   7
BRANCH   5   9
HETATM    9  O   UNL     1       1.833   4.827  -0.291  1.00  0.00    -0.358 OA
HETATM   10  H   UNL     1       2.349   5.622  -0.051  1.00  0.00     0.217 HD
ENDBRANCH   5   9
BRANCH   4  11
HETATM   11  O   UNL     1       4.243   5.332   0.839  1.00  0.00    -0.358 OA
HETATM   12  H   UNL     1       5.115   5.339   1.270  1.00  0.00     0.217 HD
ENDBRANCH   4  11
TORSDOF 3
