REMARK  6 active torsions:
REMARK  status: ('A' for Active; 'I' for Inactive)
REMARK    1  A    between atoms: C_4  and  C_5 
REMARK    2  A    between atoms: C_5  and  N_6 
REMARK    3  A    between atoms: C_7  and  O_8 
REMARK    4  A    between atoms: C_9  and  N_10 
REMARK       I    between atoms: N_11  and  C_12 
REMARK    5  A    between atoms: C_12  and  C_14 
REMARK    6  A    between atoms: C_17  and  C_18 
ROOT
HETATM    1  N   UNL     1       5.214  -2.390  -0.816  1.00  0.00    -0.322 N 
HETATM    2  C   UNL     1       6.267  -2.624  -1.684  1.00  0.00     0.175 A 
HETATM    3  C   UNL     1       6.354  -3.995  -1.840  1.00  0.00     0.142 A 
HETATM    4  C   UNL     1       5.359  -4.618  -1.042  1.00  0.00     0.026 A 
HETATM    5  C   UNL     1       4.979  -5.957  -0.808  1.00  0.00     0.016 A 
HETATM    6  C   UNL     1       3.934  -6.236   0.076  1.00  0.00     0.001 A 
HETATM    7  C   UNL     1       3.267  -5.204   0.729  1.00  0.00     0.002 A 
HETATM    8  C   UNL     1       3.618  -3.868   0.508  1.00  0.00     0.031 A 
HETATM    9  C   UNL     1       4.668  -3.594  -0.387  1.00  0.00     0.049 A 
ENDROOT
BRANCH   3  10
HETATM   10  N   UNL     1       7.221  -4.718  -2.682  1.00  0.00    -0.141 NA
HETATM   11  N   UNL     1       8.314  -4.147  -2.867  1.00  0.00    -0.105 NA
HETATM   12  C   UNL     1       9.123  -4.788  -3.779  1.00  0.00     0.295 C 
HETATM   13  O   UNL     1       8.854  -5.815  -4.403  1.00  0.00    -0.264 OA
BRANCH  12  14
HETATM   14  C   UNL     1      10.455  -4.136  -4.002  1.00  0.00     0.035 A 
HETATM   15  C   UNL     1      11.341  -4.678  -4.943  1.00  0.00     0.018 A 
HETATM   16  C   UNL     1      12.612  -4.120  -5.124  1.00  0.00     0.008 A 
HETATM   17  C   UNL     1      13.028  -3.013  -4.368  1.00  0.00    -0.055 A 
HETATM   18  C   UNL     1      12.122  -2.452  -3.456  1.00  0.00     0.008 A 
HETATM   19  C   UNL     1      10.848  -3.007  -3.274  1.00  0.00     0.018 A 
BRANCH  17  20
HETATM   20  C   UNL     1      14.446  -2.484  -4.520  1.00  0.00     0.010 C 
HETATM   21  C   UNL     1      14.484  -1.029  -4.992  1.00  0.00     0.015 C 
HETATM   22  C   UNL     1      15.244  -2.646  -3.223  1.00  0.00     0.015 C 
ENDBRANCH  17  20
ENDBRANCH  12  14
ENDBRANCH   3  10
BRANCH   2  23
HETATM   23  O   UNL     1       7.005  -1.662  -2.243  1.00  0.00    -0.344 OA
HETATM   24  H   UNL     1       6.705  -0.782  -1.970  1.00  0.00     0.219 HD
ENDBRANCH   2  23
BRANCH   1  25
HETATM   25  C   UNL     1       4.718  -1.077  -0.396  1.00  0.00     0.159 C 
BRANCH  25  26
HETATM   26  C   UNL     1       3.626  -0.560  -1.298  1.00  0.00    -0.005 C 
HETATM   27  C   UNL     1       2.642   0.288  -0.927  1.00  0.00    -0.090 C 
HETATM   28  C   UNL     1       1.574   0.695  -1.909  1.00  0.00     0.042 C 
HETATM   29  C   UNL     1       2.555   0.877   0.454  1.00  0.00     0.042 C 
ENDBRANCH  25  26
ENDBRANCH   1  25
TORSDOF 6
