REMARK  5 active torsions:
REMARK  status: ('A' for Active; 'I' for Inactive)
REMARK    1  A    between atoms: C_4  and  C_5 
REMARK    2  A    between atoms: C_5  and  N_6 
REMARK    3  A    between atoms: C_7  and  O_8 
REMARK    4  A    between atoms: C_9  and  N_10 
REMARK       I    between atoms: N_11  and  C_12 
REMARK    5  A    between atoms: C_12  and  C_14 
ROOT
HETATM    1  N   UNL     1       5.175   2.554  -0.958  1.00  0.00    -0.322 N 
HETATM    2  C   UNL     1       4.670   3.737  -0.449  1.00  0.00     0.175 A 
HETATM    3  C   UNL     1       5.246   4.758  -1.183  1.00  0.00     0.142 A 
HETATM    4  C   UNL     1       6.142   4.200  -2.132  1.00  0.00     0.026 A 
HETATM    5  C   UNL     1       6.987   4.736  -3.127  1.00  0.00     0.016 A 
HETATM    6  C   UNL     1       7.769   3.878  -3.908  1.00  0.00     0.001 A 
HETATM    7  C   UNL     1       7.720   2.503  -3.712  1.00  0.00     0.002 A 
HETATM    8  C   UNL     1       6.886   1.946  -2.738  1.00  0.00     0.031 A 
HETATM    9  C   UNL     1       6.100   2.814  -1.960  1.00  0.00     0.049 A 
ENDROOT
BRANCH   3  10
HETATM   10  N   UNL     1       4.996   6.138  -1.097  1.00  0.00    -0.141 NA
HETATM   11  N   UNL     1       4.659   6.507   0.046  1.00  0.00    -0.105 NA
HETATM   12  C   UNL     1       4.269   7.827   0.074  1.00  0.00     0.295 C 
HETATM   13  O   UNL     1       4.682   8.725  -0.659  1.00  0.00    -0.264 OA
BRANCH  12  14
HETATM   14  C   UNL     1       3.251   8.158   1.120  1.00  0.00     0.037 A 
HETATM   15  C   UNL     1       2.788   7.187   2.022  1.00  0.00     0.017 A 
HETATM   16  C   UNL     1       1.821   7.514   2.977  1.00  0.00     0.003 A 
HETATM   17  C   UNL     1       1.310   8.810   3.033  1.00  0.00     0.024 A 
HETATM   18  C   UNL     1       1.770   9.777   2.139  1.00  0.00     0.035 A 
HETATM   19 CL   UNL     1       1.125  11.371   2.208  1.00  0.00    -0.084 Cl
HETATM   20  C   UNL     1       2.738   9.460   1.187  1.00  0.00     0.041 A 
ENDBRANCH  12  14
ENDBRANCH   3  10
BRANCH   2  21
HETATM   21  O   UNL     1       3.776   3.789   0.541  1.00  0.00    -0.344 OA
HETATM   22  H   UNL     1       3.729   2.929   0.990  1.00  0.00     0.219 HD
ENDBRANCH   2  21
BRANCH   1  23
HETATM   23  C   UNL     1       4.736   1.209  -0.595  1.00  0.00     0.159 C 
BRANCH  23  24
HETATM   24  C   UNL     1       5.574   0.615   0.502  1.00  0.00    -0.005 C 
HETATM   25  C   UNL     1       5.141  -0.214   1.473  1.00  0.00    -0.090 C 
HETATM   26  C   UNL     1       6.122  -0.791   2.459  1.00  0.00     0.042 C 
HETATM   27  C   UNL     1       3.709  -0.653   1.594  1.00  0.00     0.042 C 
ENDBRANCH  23  24
ENDBRANCH   1  23
TORSDOF 5
