REMARK  6 active torsions:
REMARK  status: ('A' for Active; 'I' for Inactive)
REMARK    1  A    between atoms: C_4  and  C_5 
REMARK    2  A    between atoms: C_5  and  N_6 
REMARK    3  A    between atoms: C_7  and  O_8 
REMARK    4  A    between atoms: C_9  and  N_10 
REMARK       I    between atoms: N_11  and  C_12 
REMARK    5  A    between atoms: C_12  and  C_14 
REMARK    6  A    between atoms: C_17  and  C_18 
ROOT
HETATM    1  N   UNL     1       5.121   0.799  -2.424  1.00  0.00    -0.322 N 
HETATM    2  C   UNL     1       5.112   2.107  -2.877  1.00  0.00     0.175 A 
HETATM    3  C   UNL     1       5.576   2.076  -4.180  1.00  0.00     0.142 A 
HETATM    4  C   UNL     1       5.874   0.733  -4.535  1.00  0.00     0.026 A 
HETATM    5  C   UNL     1       6.355   0.103  -5.702  1.00  0.00     0.016 A 
HETATM    6  C   UNL     1       6.544  -1.283  -5.718  1.00  0.00     0.001 A 
HETATM    7  C   UNL     1       6.264  -2.044  -4.589  1.00  0.00     0.002 A 
HETATM    8  C   UNL     1       5.787  -1.446  -3.420  1.00  0.00     0.031 A 
HETATM    9  C   UNL     1       5.593  -0.053  -3.413  1.00  0.00     0.049 A 
ENDROOT
BRANCH   3  10
HETATM   10  N   UNL     1       5.700   3.145  -5.086  1.00  0.00    -0.141 NA
HETATM   11  N   UNL     1       5.908   4.244  -4.533  1.00  0.00    -0.105 NA
HETATM   12  C   UNL     1       5.932   5.297  -5.423  1.00  0.00     0.295 C 
HETATM   13  O   UNL     1       5.766   5.235  -6.639  1.00  0.00    -0.264 OA
BRANCH  12  14
HETATM   14  C   UNL     1       6.195   6.636  -4.802  1.00  0.00     0.035 A 
HETATM   15  C   UNL     1       6.189   7.784  -5.609  1.00  0.00     0.018 A 
HETATM   16  C   UNL     1       6.470   9.040  -5.060  1.00  0.00     0.017 A 
HETATM   17  C   UNL     1       6.769   9.171  -3.696  1.00  0.00     0.048 A 
HETATM   18  C   UNL     1       6.749   8.024  -2.887  1.00  0.00     0.017 A 
HETATM   19  C   UNL     1       6.465   6.768  -3.433  1.00  0.00     0.018 A 
BRANCH  17  20
HETATM   20  C   UNL     1       7.126  10.510  -3.094  1.00  0.00     0.417 C 
HETATM   21  F   UNL     1       7.138  11.530  -3.997  1.00  0.00    -0.166 F 
HETATM   22  F   UNL     1       6.262  10.889  -2.112  1.00  0.00    -0.166 F 
HETATM   23  F   UNL     1       8.362  10.505  -2.522  1.00  0.00    -0.166 F 
ENDBRANCH  17  20
ENDBRANCH  12  14
ENDBRANCH   3  10
BRANCH   2  24
HETATM   24  O   UNL     1       4.700   3.143  -2.144  1.00  0.00    -0.344 OA
HETATM   25  H   UNL     1       4.476   2.862  -1.244  1.00  0.00     0.219 HD
ENDBRANCH   2  24
BRANCH   1  26
HETATM   26  C   UNL     1       4.656   0.331  -1.120  1.00  0.00     0.159 C 
BRANCH  26  27
HETATM   27  C   UNL     1       5.757   0.332  -0.097  1.00  0.00    -0.005 C 
HETATM   28  C   UNL     1       5.609   0.566   1.223  1.00  0.00    -0.090 C 
HETATM   29  C   UNL     1       6.803   0.509   2.137  1.00  0.00     0.042 C 
HETATM   30  C   UNL     1       4.274   0.844   1.852  1.00  0.00     0.042 C 
ENDBRANCH  26  27
ENDBRANCH   1  26
TORSDOF 6
