REMARK  5 active torsions:
REMARK  status: ('A' for Active; 'I' for Inactive)
REMARK    1  A    between atoms: C_4  and  C_5 
REMARK    2  A    between atoms: C_5  and  N_6 
REMARK    3  A    between atoms: C_7  and  O_8 
REMARK    4  A    between atoms: C_9  and  N_10 
REMARK       I    between atoms: N_11  and  C_12 
REMARK    5  A    between atoms: C_12  and  C_14 
ROOT
HETATM    1  N   UNL     1       5.084   1.759  -2.012  1.00  0.00    -0.322 N 
HETATM    2  C   UNL     1       4.888   3.129  -1.988  1.00  0.00     0.175 A 
HETATM    3  C   UNL     1       5.324   3.611  -3.210  1.00  0.00     0.142 A 
HETATM    4  C   UNL     1       5.810   2.527  -3.989  1.00  0.00     0.026 A 
HETATM    5  C   UNL     1       6.353   2.407  -5.286  1.00  0.00     0.016 A 
HETATM    6  C   UNL     1       6.751   1.151  -5.759  1.00  0.00     0.001 A 
HETATM    7  C   UNL     1       6.619   0.021  -4.960  1.00  0.00     0.002 A 
HETATM    8  C   UNL     1       6.080   0.111  -3.675  1.00  0.00     0.031 A 
HETATM    9  C   UNL     1       5.673   1.375  -3.209  1.00  0.00     0.049 A 
ENDROOT
BRANCH   3  10
HETATM   10  N   UNL     1       5.266   4.931  -3.697  1.00  0.00    -0.141 NA
HETATM   11  N   UNL     1       5.340   5.795  -2.800  1.00  0.00    -0.105 NA
HETATM   12  C   UNL     1       5.163   7.080  -3.271  1.00  0.00     0.295 C 
HETATM   13  O   UNL     1       4.971   7.417  -4.437  1.00  0.00    -0.264 OA
BRANCH  12  14
HETATM   14  C   UNL     1       5.213   8.145  -2.216  1.00  0.00     0.035 A 
HETATM   15  C   UNL     1       5.000   9.489  -2.569  1.00  0.00     0.020 A 
HETATM   16  C   UNL     1       5.047  10.492  -1.595  1.00  0.00     0.043 A 
HETATM   17  C   UNL     1       5.308  10.152  -0.271  1.00  0.00     0.116 A 
HETATM   18  F   UNL     1       5.356  11.112   0.660  1.00  0.00    -0.206 F 
HETATM   19  C   UNL     1       5.520   8.829   0.097  1.00  0.00     0.043 A 
HETATM   20  C   UNL     1       5.471   7.823  -0.871  1.00  0.00     0.020 A 
ENDBRANCH  12  14
ENDBRANCH   3  10
BRANCH   2  21
HETATM   21  O   UNL     1       4.350   3.783  -0.957  1.00  0.00    -0.344 OA
HETATM   22  H   UNL     1       4.183   3.178  -0.217  1.00  0.00     0.219 HD
ENDBRANCH   2  21
BRANCH   1  23
HETATM   23  C   UNL     1       4.665   0.810  -0.982  1.00  0.00     0.159 C 
BRANCH  23  24
HETATM   24  C   UNL     1       5.730   0.595   0.055  1.00  0.00    -0.005 C 
HETATM   25  C   UNL     1       5.518   0.341   1.362  1.00  0.00    -0.090 C 
HETATM   26  C   UNL     1       6.685   0.108   2.283  1.00  0.00     0.042 C 
HETATM   27  C   UNL     1       4.141   0.233   1.954  1.00  0.00     0.042 C 
ENDBRANCH  23  24
ENDBRANCH   1  23
TORSDOF 5
