REMARK  6 active torsions:
REMARK  status: ('A' for Active; 'I' for Inactive)
REMARK    1  A    between atoms: C_4  and  C_5 
REMARK    2  A    between atoms: C_5  and  N_6 
REMARK    3  A    between atoms: C_7  and  O_8 
REMARK    4  A    between atoms: C_9  and  N_10 
REMARK       I    between atoms: N_11  and  C_12 
REMARK    5  A    between atoms: C_12  and  C_14 
REMARK    6  A    between atoms: C_18  and  C_19 
ROOT
HETATM    1  N   UNL     1       5.190   1.564  -2.016  1.00  0.00    -0.322 N 
HETATM    2  C   UNL     1       4.995   2.934  -2.034  1.00  0.00     0.175 A 
HETATM    3  C   UNL     1       5.434   3.377  -3.269  1.00  0.00     0.142 A 
HETATM    4  C   UNL     1       5.917   2.271  -4.014  1.00  0.00     0.026 A 
HETATM    5  C   UNL     1       6.459   2.115  -5.308  1.00  0.00     0.016 A 
HETATM    6  C   UNL     1       6.843   0.845  -5.749  1.00  0.00     0.001 A 
HETATM    7  C   UNL     1       6.701  -0.264  -4.921  1.00  0.00     0.002 A 
HETATM    8  C   UNL     1       6.166  -0.137  -3.636  1.00  0.00     0.031 A 
HETATM    9  C   UNL     1       5.773   1.142  -3.203  1.00  0.00     0.049 A 
ENDROOT
BRANCH   3  10
HETATM   10  N   UNL     1       5.378   4.677  -3.800  1.00  0.00    -0.141 NA
HETATM   11  N   UNL     1       5.463   5.571  -2.935  1.00  0.00    -0.105 NA
HETATM   12  C   UNL     1       5.255   6.826  -3.464  1.00  0.00     0.295 C 
HETATM   13  O   UNL     1       5.535   7.193  -4.602  1.00  0.00    -0.264 OA
BRANCH  12  14
HETATM   14  C   UNL     1       4.638   7.809  -2.515  1.00  0.00     0.036 A 
HETATM   15  C   UNL     1       4.326   9.099  -2.966  1.00  0.00     0.017 A 
HETATM   16  C   UNL     1       3.734  10.023  -2.103  1.00  0.00     0.002 A 
HETATM   17  C   UNL     1       3.461   9.671  -0.780  1.00  0.00     0.016 A 
HETATM   18  C   UNL     1       3.778   8.391  -0.303  1.00  0.00     0.048 A 
HETATM   19  C   UNL     1       4.360   7.463  -1.184  1.00  0.00     0.033 A 
BRANCH  18  20
HETATM   20  C   UNL     1       3.517   7.999   1.131  1.00  0.00     0.417 C 
HETATM   21  F   UNL     1       2.982   9.001   1.882  1.00  0.00    -0.166 F 
HETATM   22  F   UNL     1       2.656   6.950   1.239  1.00  0.00    -0.166 F 
HETATM   23  F   UNL     1       4.654   7.617   1.777  1.00  0.00    -0.166 F 
ENDBRANCH  18  20
ENDBRANCH  12  14
ENDBRANCH   3  10
BRANCH   2  24
HETATM   24  O   UNL     1       4.451   3.618  -1.024  1.00  0.00    -0.344 OA
HETATM   25  H   UNL     1       4.364   3.052  -0.240  1.00  0.00     0.219 HD
ENDBRANCH   2  24
BRANCH   1  26
HETATM   26  C   UNL     1       4.767   0.648  -0.958  1.00  0.00     0.159 C 
BRANCH  26  27
HETATM   27  C   UNL     1       5.836   0.454   0.081  1.00  0.00    -0.005 C 
HETATM   28  C   UNL     1       5.630   0.236   1.397  1.00  0.00    -0.090 C 
HETATM   29  C   UNL     1       6.804   0.028   2.316  1.00  0.00     0.042 C 
HETATM   30  C   UNL     1       4.258   0.144   2.003  1.00  0.00     0.042 C 
ENDBRANCH  26  27
ENDBRANCH   1  26
TORSDOF 6
