REMARK  7 active torsions:
REMARK  status: ('A' for Active; 'I' for Inactive)
REMARK    1  A    between atoms: O_2  and  C_3 
REMARK    2  A    between atoms: C_6  and  C_7 
REMARK       I    between atoms: C_7  and  N_9 
REMARK    3  A    between atoms: N_10  and  C_11 
REMARK    4  A    between atoms: C_12  and  O_13 
REMARK    5  A    between atoms: N_14  and  C_15 
REMARK    6  A    between atoms: C_15  and  C_16 
REMARK    7  A    between atoms: C_27  and  O_28 
ROOT
HETATM    1  C   UNL     1       5.294  -8.193  -2.163  1.00  0.00     0.142 C 
HETATM    2  C   UNL     1       5.024  -8.618  -0.885  1.00  0.00     0.175 C 
HETATM    3  N   UNL     1       5.762  -9.754  -0.677  1.00  0.00    -0.322 N 
HETATM    4  C   UNL     1       6.329 -10.173  -1.870  1.00  0.00     0.049 A 
HETATM    5  C   UNL     1       7.069 -11.325  -2.175  1.00  0.00     0.031 A 
HETATM    6  C   UNL     1       7.463 -11.522  -3.504  1.00  0.00     0.002 A 
HETATM    7  C   UNL     1       7.160 -10.584  -4.485  1.00  0.00     0.001 A 
HETATM    8  C   UNL     1       6.464  -9.415  -4.165  1.00  0.00     0.016 A 
HETATM    9  C   UNL     1       6.031  -9.201  -2.838  1.00  0.00     0.026 A 
ENDROOT
BRANCH   1  10
HETATM   10  N   UNL     1       4.753  -6.992  -2.613  1.00  0.00    -0.141 NA
HETATM   11  N   UNL     1       5.112  -6.604  -3.737  1.00  0.00    -0.105 NA
HETATM   12  C   UNL     1       4.317  -5.541  -4.115  1.00  0.00     0.295 C 
HETATM   13  O   UNL     1       3.599  -4.874  -3.374  1.00  0.00    -0.264 OA
BRANCH  12  14
HETATM   14  C   UNL     1       4.277  -5.260  -5.569  1.00  0.00     0.038 A 
HETATM   15  C   UNL     1       3.176  -4.562  -6.069  1.00  0.00     0.020 A 
HETATM   16  C   UNL     1       3.060  -4.326  -7.435  1.00  0.00     0.040 A 
HETATM   17  C   UNL     1       4.050  -4.763  -8.325  1.00  0.00     0.101 A 
HETATM   18  C   UNL     1       5.176  -5.441  -7.815  1.00  0.00     0.102 A 
HETATM   19  C   UNL     1       5.275  -5.700  -6.441  1.00  0.00     0.056 A 
BRANCH  17  20
HETATM   20  O   UNL     1       3.936  -4.625  -9.680  1.00  0.00    -0.353 OA
HETATM   21  C   UNL     1       3.034  -3.632 -10.154  1.00  0.00     0.210 C 
ENDBRANCH  17  20
BRANCH  18  22
HETATM   22  O   UNL     1       6.227  -5.951  -8.535  1.00  0.00    -0.353 OA
HETATM   23  C   UNL     1       6.601  -5.232  -9.706  1.00  0.00     0.210 C 
ENDBRANCH  18  22
ENDBRANCH  12  14
ENDBRANCH   1  10
BRANCH   2  24
HETATM   24  O   UNL     1       4.231  -8.104   0.052  1.00  0.00    -0.344 OA
HETATM   25  H   UNL     1       3.726  -7.391  -0.390  1.00  0.00     0.219 HD
ENDBRANCH   2  24
BRANCH   3  26
HETATM   26  C   UNL     1       6.001 -10.337   0.636  1.00  0.00     0.159 C 
BRANCH  26  27
HETATM   27  C   UNL     1       5.133 -11.519   0.961  1.00  0.00    -0.005 C 
HETATM   28  C   UNL     1       5.291 -12.277   2.067  1.00  0.00    -0.090 C 
HETATM   29  C   UNL     1       6.352 -12.023   3.106  1.00  0.00     0.042 C 
HETATM   30  C   UNL     1       4.393 -13.444   2.369  1.00  0.00     0.042 C 
ENDBRANCH  26  27
ENDBRANCH   3  26
TORSDOF 7
