REMARK  6 active torsions:
REMARK  status: ('A' for Active; 'I' for Inactive)
REMARK    1  A    between atoms: C_4  and  C_5 
REMARK    2  A    between atoms: C_5  and  N_6 
REMARK    3  A    between atoms: C_7  and  O_8 
REMARK    4  A    between atoms: C_9  and  N_10 
REMARK       I    between atoms: N_11  and  C_12 
REMARK    5  A    between atoms: C_12  and  C_14 
REMARK    6  A    between atoms: C_17  and  C_18 
ROOT
HETATM    1  N   UNL     1       5.291  -2.509  -0.633  1.00  0.00    -0.322 N 
HETATM    2  C   UNL     1       6.375  -2.754  -1.459  1.00  0.00     0.175 A 
HETATM    3  C   UNL     1       6.458  -4.127  -1.599  1.00  0.00     0.142 A 
HETATM    4  C   UNL     1       5.433  -4.739  -0.837  1.00  0.00     0.026 A 
HETATM    5  C   UNL     1       5.041  -6.075  -0.608  1.00  0.00     0.016 A 
HETATM    6  C   UNL     1       3.960  -6.344   0.236  1.00  0.00     0.001 A 
HETATM    7  C   UNL     1       3.269  -5.304   0.849  1.00  0.00     0.002 A 
HETATM    8  C   UNL     1       3.630  -3.971   0.629  1.00  0.00     0.031 A 
HETATM    9  C   UNL     1       4.719  -3.707  -0.220  1.00  0.00     0.049 A 
ENDROOT
BRANCH   3  10
HETATM   10  N   UNL     1       7.358  -4.858  -2.390  1.00  0.00    -0.141 NA
HETATM   11  N   UNL     1       8.466  -4.299  -2.513  1.00  0.00    -0.105 NA
HETATM   12  C   UNL     1       9.308  -4.967  -3.373  1.00  0.00     0.295 C 
HETATM   13  O   UNL     1       9.056  -5.999  -3.996  1.00  0.00    -0.264 OA
BRANCH  12  14
HETATM   14  C   UNL     1      10.657  -4.337  -3.537  1.00  0.00     0.035 A 
HETATM   15  C   UNL     1      11.570  -4.912  -4.423  1.00  0.00     0.018 A 
HETATM   16  C   UNL     1      12.863  -4.392  -4.552  1.00  0.00     0.009 A 
HETATM   17  C   UNL     1      13.291  -3.291  -3.792  1.00  0.00    -0.051 A 
HETATM   18  C   UNL     1      12.345  -2.693  -2.937  1.00  0.00     0.009 A 
HETATM   19  C   UNL     1      11.046  -3.206  -2.809  1.00  0.00     0.018 A 
BRANCH  17  20
HETATM   20  C   UNL     1      14.741  -2.769  -3.844  1.00  0.00    -0.024 C 
HETATM   21  C   UNL     1      15.651  -3.592  -4.784  1.00  0.00     0.019 C 
HETATM   22  C   UNL     1      14.773  -1.306  -4.331  1.00  0.00     0.019 C 
HETATM   23  C   UNL     1      15.370  -2.838  -2.434  1.00  0.00     0.019 C 
ENDBRANCH  17  20
ENDBRANCH  12  14
ENDBRANCH   3  10
BRANCH   2  24
HETATM   24  O   UNL     1       7.138  -1.803  -2.000  1.00  0.00    -0.344 OA
HETATM   25  H   UNL     1       6.840  -0.919  -1.741  1.00  0.00     0.219 HD
ENDBRANCH   2  24
BRANCH   1  26
HETATM   26  C   UNL     1       4.789  -1.191  -0.244  1.00  0.00     0.159 C 
BRANCH  26  27
HETATM   27  C   UNL     1       3.744  -0.678  -1.199  1.00  0.00    -0.005 C 
HETATM   28  C   UNL     1       2.755   0.185  -0.885  1.00  0.00    -0.090 C 
HETATM   29  C   UNL     1       1.734   0.583  -1.918  1.00  0.00     0.042 C 
HETATM   30  C   UNL     1       2.620   0.800   0.480  1.00  0.00     0.042 C 
ENDBRANCH  26  27
ENDBRANCH   1  26
TORSDOF 6
