REMARK  5 active torsions:
REMARK  status: ('A' for Active; 'I' for Inactive)
REMARK    1  A    between atoms: C_4  and  C_5 
REMARK    2  A    between atoms: C_5  and  N_6 
REMARK    3  A    between atoms: C_7  and  O_8 
REMARK    4  A    between atoms: C_9  and  N_10 
REMARK       I    between atoms: N_11  and  C_12 
REMARK    5  A    between atoms: C_12  and  C_14 
ROOT
HETATM    1  N   UNL     1       5.189   2.254  -1.300  1.00  0.00    -0.322 N 
HETATM    2  C   UNL     1       4.839   3.535  -0.914  1.00  0.00     0.175 A 
HETATM    3  C   UNL     1       5.322   4.387  -1.893  1.00  0.00     0.142 A 
HETATM    4  C   UNL     1       6.010   3.622  -2.873  1.00  0.00     0.026 A 
HETATM    5  C   UNL     1       6.689   3.934  -4.071  1.00  0.00     0.016 A 
HETATM    6  C   UNL     1       7.280   2.908  -4.817  1.00  0.00     0.001 A 
HETATM    7  C   UNL     1       7.206   1.590  -4.392  1.00  0.00     0.002 A 
HETATM    8  C   UNL     1       6.532   1.253  -3.214  1.00  0.00     0.031 A 
HETATM    9  C   UNL     1       5.936   2.285  -2.471  1.00  0.00     0.049 A 
ENDROOT
BRANCH   3  10
HETATM   10  N   UNL     1       5.149   5.780  -1.992  1.00  0.00    -0.141 NA
HETATM   11  N   UNL     1       5.044   6.341  -0.883  1.00  0.00    -0.105 NA
HETATM   12  C   UNL     1       4.741   7.682  -0.976  1.00  0.00     0.295 C 
HETATM   13  O   UNL     1       4.590   8.336  -2.006  1.00  0.00    -0.264 OA
BRANCH  12  14
HETATM   14  C   UNL     1       4.588   8.376   0.345  1.00  0.00     0.035 A 
HETATM   15  C   UNL     1       4.231   9.733   0.383  1.00  0.00     0.019 A 
HETATM   16  C   UNL     1       4.099  10.398   1.610  1.00  0.00     0.025 A 
HETATM   17  C   UNL     1       4.324   9.705   2.799  1.00  0.00     0.034 A 
HETATM   18 CL   UNL     1       4.176  10.522   4.306  1.00  0.00    -0.084 Cl
HETATM   19  C   UNL     1       4.671   8.356   2.776  1.00  0.00     0.025 A 
HETATM   20  C   UNL     1       4.800   7.692   1.552  1.00  0.00     0.019 A 
ENDBRANCH  12  14
ENDBRANCH   3  10
BRANCH   2  21
HETATM   21  O   UNL     1       4.141   3.809   0.190  1.00  0.00    -0.344 OA
HETATM   22  H   UNL     1       4.031   3.012   0.730  1.00  0.00     0.219 HD
ENDBRANCH   2  21
BRANCH   1  23
HETATM   23  C   UNL     1       4.770   1.015  -0.647  1.00  0.00     0.159 C 
BRANCH  23  24
HETATM   24  C   UNL     1       5.750   0.569   0.401  1.00  0.00    -0.005 C 
HETATM   25  C   UNL     1       5.445  -0.070   1.548  1.00  0.00    -0.090 C 
HETATM   26  C   UNL     1       6.545  -0.506   2.479  1.00  0.00     0.042 C 
HETATM   27  C   UNL     1       4.036  -0.424   1.933  1.00  0.00     0.042 C 
ENDBRANCH  23  24
ENDBRANCH   1  23
TORSDOF 5
