REMARK  5 active torsions:
REMARK  status: ('A' for Active; 'I' for Inactive)
REMARK    1  A    between atoms: C_4  and  C_5 
REMARK    2  A    between atoms: C_5  and  N_6 
REMARK    3  A    between atoms: C_7  and  O_8 
REMARK    4  A    between atoms: C_9  and  N_10 
REMARK       I    between atoms: N_11  and  C_12 
REMARK    5  A    between atoms: C_12  and  C_14 
ROOT
HETATM    1  N   UNL     1       5.029   1.704   1.988  1.00  0.00    -0.322 N 
HETATM    2  C   UNL     1       4.837   3.075   1.960  1.00  0.00     0.175 A 
HETATM    3  C   UNL     1       5.284   3.558   3.176  1.00  0.00     0.142 A 
HETATM    4  C   UNL     1       5.768   2.476   3.958  1.00  0.00     0.026 A 
HETATM    5  C   UNL     1       6.332   2.368   5.246  1.00  0.00     0.016 A 
HETATM    6  C   UNL     1       6.744   1.116   5.716  1.00  0.00     0.001 A 
HETATM    7  C   UNL     1       6.606  -0.018   4.924  1.00  0.00     0.002 A 
HETATM    8  C   UNL     1       6.045   0.062   3.646  1.00  0.00     0.031 A 
HETATM    9  C   UNL     1       5.625   1.322   3.182  1.00  0.00     0.049 A 
ENDROOT
BRANCH   3  10
HETATM   10  N   UNL     1       5.296   4.884   3.642  1.00  0.00    -0.141 NA
HETATM   11  N   UNL     1       5.475   5.713   2.730  1.00  0.00    -0.105 NA
HETATM   12  C   UNL     1       5.584   7.012   3.181  1.00  0.00     0.295 C 
HETATM   13  O   UNL     1       5.561   7.391   4.348  1.00  0.00    -0.264 OA
BRANCH  12  14
HETATM   14  C   UNL     1       5.767   8.022   2.089  1.00  0.00     0.035 A 
HETATM   15  C   UNL     1       5.964   9.372   2.415  1.00  0.00     0.017 A 
HETATM   16  C   UNL     1       6.106  10.325   1.403  1.00  0.00     0.001 A 
HETATM   17  C   UNL     1       6.054   9.938   0.064  1.00  0.00     0.000 A 
HETATM   18  C   UNL     1       5.876   8.596  -0.269  1.00  0.00     0.001 A 
HETATM   19  C   UNL     1       5.736   7.640   0.738  1.00  0.00     0.017 A 
ENDBRANCH  12  14
ENDBRANCH   3  10
BRANCH   2  20
HETATM   20  O   UNL     1       4.312   3.728   0.921  1.00  0.00    -0.344 OA
HETATM   21  H   UNL     1       4.160   3.124   0.177  1.00  0.00     0.219 HD
ENDBRANCH   2  20
BRANCH   1  22
HETATM   22  C   UNL     1       4.632   0.759   0.947  1.00  0.00     0.159 C 
BRANCH  22  23
HETATM   23  C   UNL     1       5.716   0.562  -0.076  1.00  0.00    -0.005 C 
HETATM   24  C   UNL     1       5.525   0.305  -1.386  1.00  0.00    -0.090 C 
HETATM   25  C   UNL     1       6.710   0.091  -2.290  1.00  0.00     0.042 C 
HETATM   26  C   UNL     1       4.159   0.178  -1.998  1.00  0.00     0.042 C 
ENDBRANCH  22  23
ENDBRANCH   1  22
TORSDOF 5
