REMARK  6 active torsions:
REMARK  status: ('A' for Active; 'I' for Inactive)
REMARK    1  A    between atoms: O_2  and  C_3 
REMARK    2  A    between atoms: C_6  and  C_7 
REMARK       I    between atoms: C_7  and  N_9 
REMARK    3  A    between atoms: N_10  and  C_11 
REMARK    4  A    between atoms: C_12  and  O_13 
REMARK    5  A    between atoms: N_14  and  C_15 
REMARK    6  A    between atoms: C_15  and  C_16 
ROOT
HETATM    1  C   UNL     1       4.878  -3.201   7.511  1.00  0.00     0.142 A 
HETATM    2  C   UNL     1       4.560  -2.904   8.818  1.00  0.00     0.175 A 
HETATM    3  N   UNL     1       4.036  -4.048   9.384  1.00  0.00    -0.322 N 
HETATM    4  C   UNL     1       4.032  -5.077   8.453  1.00  0.00     0.049 A 
HETATM    5  C   UNL     1       3.611  -6.413   8.558  1.00  0.00     0.031 A 
HETATM    6  C   UNL     1       3.746  -7.242   7.439  1.00  0.00     0.002 A 
HETATM    7  C   UNL     1       4.271  -6.757   6.248  1.00  0.00     0.001 A 
HETATM    8  C   UNL     1       4.672  -5.423   6.144  1.00  0.00     0.016 A 
HETATM    9  C   UNL     1       4.562  -4.566   7.262  1.00  0.00     0.026 A 
ENDROOT
BRANCH   1  10
HETATM   10  N   UNL     1       5.401  -2.261   6.605  1.00  0.00    -0.141 NA
HETATM   11  N   UNL     1       6.207  -2.770   5.801  1.00  0.00    -0.105 NA
HETATM   12  C   UNL     1       6.641  -1.888   4.835  1.00  0.00     0.295 C 
HETATM   13  O   UNL     1       6.063  -0.871   4.463  1.00  0.00    -0.264 OA
BRANCH  12  14
HETATM   14  C   UNL     1       7.933  -2.269   4.188  1.00  0.00     0.038 A 
HETATM   15  C   UNL     1       8.457  -1.476   3.159  1.00  0.00     0.020 A 
HETATM   16  C   UNL     1       9.681  -1.806   2.564  1.00  0.00     0.041 A 
HETATM   17  C   UNL     1      10.399  -2.933   2.987  1.00  0.00     0.106 A 
HETATM   18  C   UNL     1       9.860  -3.720   4.008  1.00  0.00     0.150 A 
HETATM   19  C   UNL     1       8.643  -3.403   4.603  1.00  0.00     0.062 A 
HETATM   20  F   UNL     1      10.494  -4.812   4.463  1.00  0.00    -0.203 F 
BRANCH  17  21
HETATM   21  O   UNL     1      11.582  -3.130   2.332  1.00  0.00    -0.353 OA
HETATM   22  C   UNL     1      12.337  -4.278   2.709  1.00  0.00     0.210 C 
ENDBRANCH  17  21
ENDBRANCH  12  14
ENDBRANCH   1  10
BRANCH   2  23
HETATM   23  O   UNL     1       4.695  -1.780   9.517  1.00  0.00    -0.344 OA
HETATM   24  H   UNL     1       5.096  -1.127   8.911  1.00  0.00     0.219 HD
ENDBRANCH   2  23
BRANCH   3  25
HETATM   25  C   UNL     1       3.643  -4.186  10.791  1.00  0.00     0.159 C 
BRANCH  25  26
HETATM   26  C   UNL     1       2.185  -3.896  11.031  1.00  0.00    -0.005 C 
HETATM   27  C   UNL     1       1.370  -4.469  11.944  1.00  0.00    -0.090 C 
HETATM   28  C   UNL     1       1.774  -5.538  12.924  1.00  0.00     0.042 C 
HETATM   29  C   UNL     1      -0.068  -4.034  12.080  1.00  0.00     0.042 C 
ENDBRANCH  25  26
ENDBRANCH   3  25
TORSDOF 6
