REMARK  10 active torsions:
REMARK  status: ('A' for Active; 'I' for Inactive)
REMARK    1  A    between atoms: C_2  and  O_3 
REMARK    2  A    between atoms: O_3  and  C_4 
REMARK    3  A    between atoms: C_7  and  C_8 
REMARK    4  A    between atoms: C_8  and  C_9 
REMARK    5  A    between atoms: C_9  and  C_10 
REMARK    6  A    between atoms: C_13  and  O_14 
REMARK    7  A    between atoms: C_15  and  O_16 
REMARK    8  A    between atoms: C_17  and  O_18 
REMARK    9  A    between atoms: C_20  and  O_21 
REMARK   10  A    between atoms: O_21  and  C_22 
ROOT
HETATM    1  C   UNL     1       8.447  -2.193  -1.112  1.00  0.00     0.043 C 
ENDROOT
BRANCH   1   2
HETATM    2  C   UNL     1       6.973  -1.872  -0.982  1.00  0.00    -0.055 A 
HETATM    3  C   UNL     1       6.437  -1.377   0.207  1.00  0.00     0.010 A 
HETATM    4  C   UNL     1       5.077  -1.098   0.316  1.00  0.00     0.040 A 
HETATM    5  C   UNL     1       4.210  -1.269  -0.771  1.00  0.00     0.102 A 
HETATM    6  C   UNL     1       4.753  -1.673  -2.000  1.00  0.00     0.102 A 
HETATM    7  C   UNL     1       6.117  -1.996  -2.086  1.00  0.00     0.046 A 
BRANCH   5   8
HETATM    8  O   UNL     1       2.856  -1.066  -0.674  1.00  0.00    -0.349 OA
BRANCH   8   9
HETATM    9  C   UNL     1       2.341  -0.791   0.630  1.00  0.00     0.171 C 
HETATM   10  C   UNL     1       0.832  -0.681   0.556  1.00  0.00     0.034 C 
ENDBRANCH   8   9
ENDBRANCH   5   8
BRANCH   6  11
HETATM   11  O   UNL     1       4.074  -1.828  -3.186  1.00  0.00    -0.349 OA
BRANCH  11  12
HETATM   12  C   UNL     1       2.990  -0.926  -3.412  1.00  0.00     0.171 C 
HETATM   13  C   UNL     1       2.853  -0.706  -4.910  1.00  0.00     0.034 C 
ENDBRANCH  11  12
ENDBRANCH   6  11
ENDBRANCH   1   2
BRANCH   1  14
HETATM   14  C   UNL     1       9.106  -2.685   0.187  1.00  0.00     0.046 C 
BRANCH  14  15
HETATM   15  C   UNL     1      10.571  -2.978   0.004  1.00  0.00    -0.022 A 
HETATM   16  C   UNL     1      10.997  -4.281  -0.303  1.00  0.00     0.013 A 
HETATM   17  C   UNL     1      12.354  -4.565  -0.497  1.00  0.00     0.040 A 
HETATM   18  C   UNL     1      13.285  -3.537  -0.400  1.00  0.00     0.101 A 
HETATM   19  C   UNL     1      12.873  -2.245  -0.102  1.00  0.00     0.133 A 
HETATM   20  C   UNL     1      11.529  -1.967   0.113  1.00  0.00     0.107 A 
BRANCH  18  21
HETATM   21  O   UNL     1      14.622  -3.752  -0.587  1.00  0.00    -0.358 OA
HETATM   22  H   UNL     1      14.758  -4.709  -0.708  1.00  0.00     0.217 HD
ENDBRANCH  18  21
BRANCH  19  23
HETATM   23  O   UNL     1      13.782  -1.223  -0.018  1.00  0.00    -0.356 OA
HETATM   24  H   UNL     1      14.631  -1.643  -0.270  1.00  0.00     0.218 HD
ENDBRANCH  19  23
BRANCH  20  25
HETATM   25  O   UNL     1      11.156  -0.692   0.436  1.00  0.00    -0.357 OA
HETATM   26  H   UNL     1      11.999  -0.198   0.494  1.00  0.00     0.217 HD
ENDBRANCH  20  25
ENDBRANCH  14  15
ENDBRANCH   1  14
TORSDOF 10
