REMARK  6 active torsions:
REMARK  status: ('A' for Active; 'I' for Inactive)
REMARK    1  A    between atoms: C_2  and  C_3 
REMARK       I    between atoms: C_2  and  N_21 
REMARK    2  A    between atoms: C_3  and  O_4 
REMARK    3  A    between atoms: O_4  and  C_5 
REMARK    4  A    between atoms: C_8  and  C_9 
REMARK    5  A    between atoms: C_9  and  C_10 
REMARK    6  A    between atoms: N_21  and  C_22 
ROOT
HETATM    1  C   UNL     1       2.291  -3.047   1.953  1.00  0.00     0.069 A 
HETATM    2  C   UNL     1       3.317  -2.778   2.861  1.00  0.00     0.037 A 
HETATM    3  C   UNL     1       3.734  -3.762   3.775  1.00  0.00     0.010 A 
HETATM    4  C   UNL     1       3.130  -5.028   3.791  1.00  0.00    -0.057 A 
HETATM    5  C   UNL     1       2.082  -5.274   2.897  1.00  0.00     0.010 A 
HETATM    6  C   UNL     1       1.657  -4.288   2.002  1.00  0.00     0.037 A 
ENDROOT
BRANCH   1   7
HETATM    7  O   UNL     1       1.982  -2.056   1.049  1.00  0.00    -0.342 OA
BRANCH   7   8
HETATM    8  C   UNL     1       1.372  -2.540  -0.149  1.00  0.00     0.278 C 
BRANCH   8   9
HETATM    9  C   UNL     1       1.416  -1.582  -1.342  1.00  0.00     0.246 C 
HETATM   10  O   UNL     1       1.030  -1.960  -2.447  1.00  0.00    -0.271 OA
HETATM   11  N   UNL     1       1.915  -0.332  -1.048  1.00  0.00    -0.324 N 
HETATM   12  H   UNL     1       2.379  -0.241  -0.146  1.00  0.00     0.169 HD
BRANCH  11  13
HETATM   13  C   UNL     1       1.991   0.788  -1.914  1.00  0.00     0.058 A 
HETATM   14  C   UNL     1       1.270   0.859  -3.114  1.00  0.00     0.031 A 
HETATM   15  C   UNL     1       1.365   1.980  -3.943  1.00  0.00     0.004 A 
HETATM   16  C   UNL     1       2.165   3.057  -3.572  1.00  0.00     0.026 A 
HETATM   17  C   UNL     1       2.873   3.017  -2.369  1.00  0.00     0.058 A 
HETATM   18 CL   UNL     1       3.809   4.410  -1.953  1.00  0.00    -0.082 Cl
HETATM   19  C   UNL     1       2.794   1.886  -1.540  1.00  0.00     0.082 A 
HETATM   20 CL   UNL     1       3.697   1.805  -0.055  1.00  0.00    -0.080 Cl
ENDBRANCH  11  13
ENDBRANCH   8   9
ENDBRANCH   7   8
ENDBRANCH   1   7
BRANCH   4  21
HETATM   21  C   UNL     1       3.607  -6.127   4.722  1.00  0.00     0.062 C 
BRANCH  21  22
HETATM   22  C   UNL     1       2.901  -6.210   6.084  1.00  0.00     0.175 C 
HETATM   23  C   UNL     1       1.425  -6.452   5.934  1.00  0.00     0.239 C 
HETATM   24  O   UNL     1       0.965  -7.381   5.261  1.00  0.00    -0.272 OA
HETATM   25  N   UNL     1       0.585  -5.575   6.559  1.00  0.00    -0.278 N 
HETATM   26  C   UNL     1       0.958  -4.413   7.152  1.00  0.00     0.329 C 
HETATM   27  H   UNL     1      -0.400  -5.683   6.364  1.00  0.00     0.173 HD
HETATM   28  O   UNL     1       0.155  -3.516   7.372  1.00  0.00    -0.247 OA
HETATM   29  N   UNL     1       2.276  -4.280   7.454  1.00  0.00    -0.278 N 
HETATM   30  C   UNL     1       3.286  -5.035   6.941  1.00  0.00     0.239 C 
HETATM   31  H   UNL     1       2.547  -3.430   7.931  1.00  0.00     0.173 HD
HETATM   32  O   UNL     1       4.458  -4.742   7.173  1.00  0.00    -0.272 OA
ENDBRANCH  21  22
ENDBRANCH   4  21
TORSDOF 6
