REMARK  7 active torsions:
REMARK  status: ('A' for Active; 'I' for Inactive)
REMARK    1  A    between atoms: C_2  and  C_3 
REMARK       I    between atoms: C_2  and  N_24 
REMARK    2  A    between atoms: C_3  and  N_4 
REMARK    3  A    between atoms: N_4  and  C_5 
REMARK    4  A    between atoms: N_4  and  S_14 
REMARK    5  A    between atoms: C_9  and  N_10 
REMARK    6  A    between atoms: S_14  and  C_17 
REMARK    7  A    between atoms: N_24  and  O_25 
ROOT
HETATM    1  N   UNL     1       1.880   2.440   0.217  1.00  0.00    -0.263 N 
ENDROOT
BRANCH   1   2
HETATM    2  C   UNL     1       2.851   1.313   0.222  1.00  0.00     0.247 C 
BRANCH   2   3
HETATM    3  C   UNL     1       2.707   0.444  -1.028  1.00  0.00     0.260 C 
HETATM    4  O   UNL     1       2.156   0.822  -2.062  1.00  0.00    -0.270 OA
HETATM    5  N   UNL     1       3.320  -0.780  -0.999  1.00  0.00    -0.236 N 
HETATM    6  H   UNL     1       3.033  -1.436  -1.723  1.00  0.00     0.197 HD
BRANCH   5   7
HETATM    7  O   UNL     1       3.665  -1.323   0.251  1.00  0.00    -0.287 OA
HETATM    8  H   UNL     1       4.638  -1.231   0.261  1.00  0.00     0.244 HD
ENDBRANCH   5   7
ENDBRANCH   2   3
ENDBRANCH   1   2
BRANCH   1   9
HETATM    9  C   UNL     1       0.494   2.100   0.404  1.00  0.00     0.048 A 
HETATM   10  C   UNL     1      -0.416   2.531  -0.566  1.00  0.00     0.030 A 
HETATM   11  C   UNL     1      -1.765   2.182  -0.479  1.00  0.00     0.005 A 
HETATM   12  C   UNL     1      -2.211   1.388   0.576  1.00  0.00     0.036 A 
HETATM   13  C   UNL     1      -1.300   0.971   1.556  1.00  0.00     0.105 A 
HETATM   14  C   UNL     1       0.050   1.352   1.496  1.00  0.00     0.066 A 
BRANCH  13  15
HETATM   15  N   UNL     1      -1.754   0.073   2.625  1.00  0.00    -0.116 N 
HETATM   16  O   UNL     1      -2.917  -0.354   2.564  1.00  0.00    -0.532 OA
HETATM   17  O   UNL     1      -0.941  -0.228   3.510  1.00  0.00    -0.532 OA
ENDBRANCH  13  15
ENDBRANCH   1   9
BRANCH   1  18
HETATM   18  S   UNL     1       2.412   3.889   0.953  1.00  0.00     0.267 S 
HETATM   19  O   UNL     1       1.279   4.777   1.096  1.00  0.00    -0.200 OA
HETATM   20  O   UNL     1       3.233   3.493   2.080  1.00  0.00    -0.200 OA
BRANCH  18  21
HETATM   21  C   UNL     1       3.491   4.640  -0.247  1.00  0.00     0.101 A 
HETATM   22  C   UNL     1       3.690   4.051  -1.507  1.00  0.00     0.027 A 
HETATM   23  C   UNL     1       4.581   4.614  -2.421  1.00  0.00     0.002 A 
HETATM   24  C   UNL     1       5.249   5.792  -2.106  1.00  0.00     0.002 A 
HETATM   25  C   UNL     1       5.017   6.412  -0.878  1.00  0.00     0.025 A 
HETATM   26  C   UNL     1       4.144   5.841   0.058  1.00  0.00     0.057 A 
HETATM   27 CL   UNL     1       3.924   6.702   1.538  1.00  0.00    -0.083 Cl
ENDBRANCH  18  21
ENDBRANCH   1  18
TORSDOF 7
