REMARK  7 active torsions:
REMARK  status: ('A' for Active; 'I' for Inactive)
REMARK    1  A    between atoms: C_2  and  C_3 
REMARK       I    between atoms: C_2  and  N_25 
REMARK    2  A    between atoms: C_3  and  N_4 
REMARK    3  A    between atoms: N_4  and  C_5 
REMARK    4  A    between atoms: N_4  and  S_14 
REMARK    5  A    between atoms: C_9  and  N_10 
REMARK    6  A    between atoms: S_14  and  C_17 
REMARK    7  A    between atoms: N_25  and  O_26 
ROOT
HETATM    1  N   UNL     1       1.907  -2.536  -0.438  1.00  0.00    -0.263 N 
ENDROOT
BRANCH   1   2
HETATM    2  C   UNL     1       2.876  -1.413  -0.307  1.00  0.00     0.247 C 
BRANCH   2   3
HETATM    3  C   UNL     1       2.736  -0.634   0.992  1.00  0.00     0.260 C 
HETATM    4  O   UNL     1       2.199  -1.083   2.004  1.00  0.00    -0.270 OA
HETATM    5  N   UNL     1       3.343   0.597   1.032  1.00  0.00    -0.236 N 
HETATM    6  H   UNL     1       3.077   1.195   1.812  1.00  0.00     0.197 HD
BRANCH   5   7
HETATM    7  O   UNL     1       3.642   1.236  -0.186  1.00  0.00    -0.287 OA
HETATM    8  H   UNL     1       4.612   1.139  -0.246  1.00  0.00     0.244 HD
ENDBRANCH   5   7
ENDBRANCH   2   3
ENDBRANCH   1   2
BRANCH   1   9
HETATM    9  C   UNL     1       0.508  -2.181  -0.532  1.00  0.00     0.048 A 
HETATM   10  C   UNL     1       0.029  -1.244  -1.455  1.00  0.00     0.030 A 
HETATM   11  C   UNL     1      -1.348  -0.979  -1.538  1.00  0.00     0.005 A 
HETATM   12  C   UNL     1      -2.252  -1.685  -0.742  1.00  0.00     0.036 A 
HETATM   13  C   UNL     1      -1.769  -2.650   0.149  1.00  0.00     0.105 A 
HETATM   14  C   UNL     1      -0.394  -2.880   0.268  1.00  0.00     0.066 A 
BRANCH  13  15
HETATM   15  N   UNL     1      -2.704  -3.449   0.948  1.00  0.00    -0.116 N 
HETATM   16  O   UNL     1      -3.916  -3.284   0.746  1.00  0.00    -0.532 OA
HETATM   17  O   UNL     1      -2.233  -4.242   1.776  1.00  0.00    -0.532 OA
ENDBRANCH  13  15
ENDBRANCH   1   9
BRANCH   1  18
HETATM   18  S   UNL     1       2.411  -3.775  -1.511  1.00  0.00     0.267 S 
HETATM   19  O   UNL     1       1.341  -4.716  -1.754  1.00  0.00    -0.200 OA
HETATM   20  O   UNL     1       3.077  -3.115  -2.619  1.00  0.00    -0.200 OA
BRANCH  18  21
HETATM   21  C   UNL     1       3.661  -4.637  -0.578  1.00  0.00     0.103 A 
HETATM   22  C   UNL     1       4.973  -4.662  -1.080  1.00  0.00     0.050 A 
HETATM   23  C   UNL     1       5.985  -5.282  -0.347  1.00  0.00     0.035 A 
HETATM   24 CL   UNL     1       7.583  -5.350  -0.977  1.00  0.00    -0.084 Cl
HETATM   25  C   UNL     1       5.713  -5.855   0.892  1.00  0.00     0.025 A 
HETATM   26  C   UNL     1       4.404  -5.866   1.370  1.00  0.00     0.027 A 
HETATM   27  C   UNL     1       3.368  -5.289   0.624  1.00  0.00     0.057 A 
HETATM   28 CL   UNL     1       1.788  -5.515   1.261  1.00  0.00    -0.083 Cl
ENDBRANCH  18  21
ENDBRANCH   1  18
TORSDOF 7
