REMARK  7 active torsions:
REMARK  status: ('A' for Active; 'I' for Inactive)
REMARK    1  A    between atoms: C_2  and  C_3 
REMARK       I    between atoms: C_2  and  N_24 
REMARK    2  A    between atoms: C_3  and  N_4 
REMARK    3  A    between atoms: N_4  and  C_5 
REMARK    4  A    between atoms: N_4  and  S_14 
REMARK    5  A    between atoms: C_9  and  N_10 
REMARK    6  A    between atoms: S_14  and  C_17 
REMARK    7  A    between atoms: N_24  and  O_25 
ROOT
HETATM    1  N   UNL     1       2.019   0.574  -2.341  1.00  0.00    -0.263 N 
ENDROOT
BRANCH   1   2
HETATM    2  C   UNL     1       2.990   0.370  -1.234  1.00  0.00     0.247 C 
BRANCH   2   3
HETATM    3  C   UNL     1       2.457  -0.441  -0.066  1.00  0.00     0.260 C 
HETATM    4  O   UNL     1       2.471  -0.016   1.089  1.00  0.00    -0.270 OA
HETATM    5  N   UNL     1       2.026  -1.705  -0.399  1.00  0.00    -0.236 N 
HETATM    6  H   UNL     1       1.747  -1.937  -1.348  1.00  0.00     0.197 HD
BRANCH   5   7
HETATM    7  O   UNL     1       1.425  -2.460   0.633  1.00  0.00    -0.287 OA
HETATM    8  H   UNL     1       2.084  -2.400   1.354  1.00  0.00     0.244 HD
ENDBRANCH   5   7
ENDBRANCH   2   3
ENDBRANCH   1   2
BRANCH   1   9
HETATM    9  C   UNL     1       0.652   0.871  -2.009  1.00  0.00     0.048 A 
HETATM   10  C   UNL     1      -0.365   0.131  -2.619  1.00  0.00     0.030 A 
HETATM   11  C   UNL     1      -1.704   0.371  -2.297  1.00  0.00     0.005 A 
HETATM   12  C   UNL     1      -2.032   1.363  -1.372  1.00  0.00     0.036 A 
HETATM   13  C   UNL     1      -1.010   2.118  -0.783  1.00  0.00     0.105 A 
HETATM   14  C   UNL     1       0.333   1.887  -1.108  1.00  0.00     0.066 A 
BRANCH  13  15
HETATM   15  N   UNL     1      -1.341   3.158   0.197  1.00  0.00    -0.116 N 
HETATM   16  O   UNL     1      -2.527   3.277   0.532  1.00  0.00    -0.532 OA
HETATM   17  O   UNL     1      -0.413   3.859   0.624  1.00  0.00    -0.532 OA
ENDBRANCH  13  15
ENDBRANCH   1   9
BRANCH   1  18
HETATM   18  S   UNL     1       2.656   1.354  -3.727  1.00  0.00     0.265 S 
HETATM   19  O   UNL     1       4.061   1.016  -3.819  1.00  0.00    -0.200 OA
HETATM   20  O   UNL     1       1.763   1.090  -4.839  1.00  0.00    -0.200 OA
BRANCH  18  21
HETATM   21  C   UNL     1       2.560   3.113  -3.393  1.00  0.00     0.080 A 
HETATM   22  C   UNL     1       3.648   3.779  -2.810  1.00  0.00     0.028 A 
HETATM   23  C   UNL     1       3.627   5.173  -2.710  1.00  0.00     0.044 A 
HETATM   24  C   UNL     1       2.534   5.888  -3.197  1.00  0.00     0.116 A 
HETATM   25  F   UNL     1       2.538   7.226  -3.133  1.00  0.00    -0.206 F 
HETATM   26  C   UNL     1       1.453   5.237  -3.781  1.00  0.00     0.044 A 
HETATM   27  C   UNL     1       1.467   3.846  -3.886  1.00  0.00     0.028 A 
ENDBRANCH  18  21
ENDBRANCH   1  18
TORSDOF 7
