REMARK  7 active torsions:
REMARK  status: ('A' for Active; 'I' for Inactive)
REMARK    1  A    between atoms: C_2  and  C_3 
REMARK       I    between atoms: C_2  and  N_24 
REMARK    2  A    between atoms: C_3  and  N_4 
REMARK    3  A    between atoms: N_4  and  C_5 
REMARK    4  A    between atoms: N_4  and  S_14 
REMARK    5  A    between atoms: C_9  and  N_10 
REMARK    6  A    between atoms: S_14  and  C_17 
REMARK    7  A    between atoms: N_24  and  O_25 
ROOT
HETATM    1  N   UNL     1       1.914   1.934  -1.634  1.00  0.00    -0.263 N 
ENDROOT
BRANCH   1   2
HETATM    2  C   UNL     1       2.897   1.144  -0.848  1.00  0.00     0.247 C 
BRANCH   2   3
HETATM    3  C   UNL     1       2.368  -0.183  -0.325  1.00  0.00     0.260 C 
HETATM    4  O   UNL     1       2.376  -0.466   0.872  1.00  0.00    -0.270 OA
HETATM    5  N   UNL     1       1.947  -1.054  -1.308  1.00  0.00    -0.236 N 
HETATM    6  H   UNL     1       1.639  -0.710  -2.213  1.00  0.00     0.197 HD
BRANCH   5   7
HETATM    7  O   UNL     1       1.319  -2.240  -0.858  1.00  0.00    -0.287 OA
HETATM    8  H   UNL     1       2.017  -2.656  -0.312  1.00  0.00     0.244 HD
ENDBRANCH   5   7
ENDBRANCH   2   3
ENDBRANCH   1   2
BRANCH   1   9
HETATM    9  C   UNL     1       0.554   1.976  -1.175  1.00  0.00     0.048 A 
HETATM   10  C   UNL     1      -0.472   1.635  -2.062  1.00  0.00     0.030 A 
HETATM   11  C   UNL     1      -1.796   1.570  -1.617  1.00  0.00     0.005 A 
HETATM   12  C   UNL     1      -2.097   1.849  -0.283  1.00  0.00     0.036 A 
HETATM   13  C   UNL     1      -1.068   2.216   0.593  1.00  0.00     0.105 A 
HETATM   14  C   UNL     1       0.256   2.308   0.146  1.00  0.00     0.066 A 
BRANCH  13  15
HETATM   15  N   UNL     1      -1.363   2.466   2.007  1.00  0.00    -0.116 N 
HETATM   16  O   UNL     1      -2.511   2.231   2.407  1.00  0.00    -0.532 OA
HETATM   17  O   UNL     1      -0.443   2.899   2.716  1.00  0.00    -0.532 OA
ENDBRANCH  13  15
ENDBRANCH   1   9
BRANCH   1  18
HETATM   18  S   UNL     1       2.525   3.332  -2.395  1.00  0.00     0.265 S 
HETATM   19  O   UNL     1       3.927   3.100  -2.681  1.00  0.00    -0.200 OA
HETATM   20  O   UNL     1       1.614   3.704  -3.455  1.00  0.00    -0.200 OA
BRANCH  18  21
HETATM   21  C   UNL     1       2.458   4.652  -1.174  1.00  0.00     0.080 A 
HETATM   22  C   UNL     1       3.577   4.941  -0.386  1.00  0.00     0.027 A 
HETATM   23  C   UNL     1       3.601   6.107   0.391  1.00  0.00     0.020 A 
HETATM   24  C   UNL     1       2.509   6.981   0.366  1.00  0.00     0.011 A 
HETATM   25 BR   UNL     1       2.581   8.606   1.332  1.00  0.00    -0.051 Br
HETATM   26  C   UNL     1       1.387   6.686  -0.406  1.00  0.00     0.020 A 
HETATM   27  C   UNL     1       1.364   5.525  -1.182  1.00  0.00     0.027 A 
ENDBRANCH  18  21
ENDBRANCH   1  18
TORSDOF 7
