REMARK  7 active torsions:
REMARK  status: ('A' for Active; 'I' for Inactive)
REMARK    1  A    between atoms: C_2  and  C_3 
REMARK       I    between atoms: C_2  and  N_25 
REMARK    2  A    between atoms: C_3  and  N_4 
REMARK    3  A    between atoms: N_4  and  C_5 
REMARK    4  A    between atoms: N_4  and  S_14 
REMARK    5  A    between atoms: C_9  and  N_10 
REMARK    6  A    between atoms: S_14  and  C_17 
REMARK    7  A    between atoms: N_25  and  O_26 
ROOT
HETATM    1  N   UNL     1       1.904  -2.487  -0.559  1.00  0.00    -0.263 N 
ENDROOT
BRANCH   1   2
HETATM    2  C   UNL     1       2.865  -1.367  -0.379  1.00  0.00     0.247 C 
BRANCH   2   3
HETATM    3  C   UNL     1       2.699  -0.626   0.939  1.00  0.00     0.260 C 
HETATM    4  O   UNL     1       2.148  -1.104   1.931  1.00  0.00    -0.270 OA
HETATM    5  N   UNL     1       3.298   0.607   1.020  1.00  0.00    -0.236 N 
HETATM    6  H   UNL     1       3.021   1.186   1.809  1.00  0.00     0.197 HD
BRANCH   5   7
HETATM    7  O   UNL     1       3.622   1.274  -0.177  1.00  0.00    -0.287 OA
HETATM    8  H   UNL     1       4.590   1.154  -0.233  1.00  0.00     0.244 HD
ENDBRANCH   5   7
ENDBRANCH   2   3
ENDBRANCH   1   2
BRANCH   1   9
HETATM    9  C   UNL     1       0.508  -2.148  -0.664  1.00  0.00     0.048 A 
HETATM   10  C   UNL     1       0.032  -1.181  -1.558  1.00  0.00     0.030 A 
HETATM   11  C   UNL     1      -1.341  -0.933  -1.662  1.00  0.00     0.005 A 
HETATM   12  C   UNL     1      -2.247  -1.679  -0.908  1.00  0.00     0.036 A 
HETATM   13  C   UNL     1      -1.768  -2.676  -0.048  1.00  0.00     0.105 A 
HETATM   14  C   UNL     1      -0.395  -2.906   0.083  1.00  0.00     0.066 A 
BRANCH  13  15
HETATM   15  N   UNL     1      -2.714  -3.508   0.703  1.00  0.00    -0.116 N 
HETATM   16  O   UNL     1      -3.922  -3.361   0.466  1.00  0.00    -0.532 OA
HETATM   17  O   UNL     1      -2.255  -4.309   1.529  1.00  0.00    -0.532 OA
ENDBRANCH  13  15
ENDBRANCH   1   9
BRANCH   1  18
HETATM   18  S   UNL     1       2.426  -3.703  -1.643  1.00  0.00     0.268 S 
HETATM   19  O   UNL     1       1.362  -4.644  -1.915  1.00  0.00    -0.200 OA
HETATM   20  O   UNL     1       3.117  -3.027  -2.729  1.00  0.00    -0.200 OA
BRANCH  18  21
HETATM   21  C   UNL     1       3.646  -4.573  -0.705  1.00  0.00     0.121 A 
HETATM   22  C   UNL     1       4.966  -4.656  -1.155  1.00  0.00     0.070 A 
HETATM   23  C   UNL     1       5.897  -5.341  -0.383  1.00  0.00     0.118 A 
HETATM   24  F   UNL     1       7.164  -5.426  -0.805  1.00  0.00    -0.206 F 
HETATM   25  C   UNL     1       5.537  -5.939   0.821  1.00  0.00     0.045 A 
HETATM   26  C   UNL     1       4.211  -5.868   1.253  1.00  0.00     0.047 A 
HETATM   27  C   UNL     1       3.268  -5.189   0.485  1.00  0.00     0.139 A 
HETATM   28  F   UNL     1       2.003  -5.149   0.917  1.00  0.00    -0.204 F 
ENDBRANCH  18  21
ENDBRANCH   1  18
TORSDOF 7
