REMARK  7 active torsions:
REMARK  status: ('A' for Active; 'I' for Inactive)
REMARK    1  A    between atoms: C_2  and  C_3 
REMARK       I    between atoms: C_2  and  N_24 
REMARK    2  A    between atoms: C_3  and  N_4 
REMARK    3  A    between atoms: N_4  and  C_5 
REMARK    4  A    between atoms: N_4  and  S_14 
REMARK    5  A    between atoms: C_9  and  N_10 
REMARK    6  A    between atoms: S_14  and  C_17 
REMARK    7  A    between atoms: N_24  and  O_25 
ROOT
HETATM    1  N   UNL     1       1.914   1.568   1.926  1.00  0.00    -0.263 N 
ENDROOT
BRANCH   1   2
HETATM    2  C   UNL     1       2.862   0.797   1.080  1.00  0.00     0.247 C 
BRANCH   2   3
HETATM    3  C   UNL     1       2.316   0.401  -0.281  1.00  0.00     0.260 C 
HETATM    4  O   UNL     1       2.309  -0.764  -0.674  1.00  0.00    -0.270 OA
HETATM    5  N   UNL     1       1.899   1.459  -1.057  1.00  0.00    -0.236 N 
HETATM    6  H   UNL     1       1.649   2.357  -0.653  1.00  0.00     0.197 HD
BRANCH   5   7
HETATM    7  O   UNL     1       1.301   1.141  -2.296  1.00  0.00    -0.287 OA
HETATM    8  H   UNL     1       1.908   0.465  -2.661  1.00  0.00     0.244 HD
ENDBRANCH   5   7
ENDBRANCH   2   3
ENDBRANCH   1   2
BRANCH   1   9
HETATM    9  C   UNL     1       0.539   1.151   1.965  1.00  0.00     0.048 A 
HETATM   10  C   UNL     1      -0.458   2.115   1.780  1.00  0.00     0.030 A 
HETATM   11  C   UNL     1      -1.805   1.758   1.805  1.00  0.00     0.005 A 
HETATM   12  C   UNL     1      -2.170   0.431   2.029  1.00  0.00     0.036 A 
HETATM   13  C   UNL     1      -1.171  -0.531   2.235  1.00  0.00     0.105 A 
HETATM   14  C   UNL     1       0.181  -0.176   2.215  1.00  0.00     0.066 A 
BRANCH  13  15
HETATM   15  N   UNL     1      -1.543  -1.929   2.470  1.00  0.00    -0.116 N 
HETATM   16  O   UNL     1      -2.743  -2.224   2.404  1.00  0.00    -0.532 OA
HETATM   17  O   UNL     1      -0.631  -2.730   2.731  1.00  0.00    -0.532 OA
ENDBRANCH  13  15
ENDBRANCH   1   9
BRANCH   1  18
HETATM   18  S   UNL     1       2.568   2.155   3.401  1.00  0.00     0.265 S 
HETATM   19  O   UNL     1       3.976   2.422   3.183  1.00  0.00    -0.200 OA
HETATM   20  O   UNL     1       1.691   3.193   3.904  1.00  0.00    -0.200 OA
BRANCH  18  21
HETATM   21  C   UNL     1       2.466   0.780   4.543  1.00  0.00     0.080 A 
HETATM   22  C   UNL     1       3.509  -0.151   4.624  1.00  0.00     0.027 A 
HETATM   23  C   UNL     1       3.449  -1.175   5.575  1.00  0.00     0.025 A 
HETATM   24  C   UNL     1       2.364  -1.254   6.451  1.00  0.00     0.034 A 
HETATM   25 CL   UNL     1       2.302  -2.506   7.629  1.00  0.00    -0.084 Cl
HETATM   26  C   UNL     1       1.338  -0.312   6.389  1.00  0.00     0.025 A 
HETATM   27  C   UNL     1       1.391   0.713   5.440  1.00  0.00     0.027 A 
ENDBRANCH  18  21
ENDBRANCH   1  18
TORSDOF 7
