REMARK  7 active torsions:
REMARK  status: ('A' for Active; 'I' for Inactive)
REMARK    1  A    between atoms: C_5  and  S_6 
REMARK    2  A    between atoms: S_6  and  N_9 
REMARK    3  A    between atoms: N_9  and  C_10 
REMARK    4  A    between atoms: N_9  and  C_15 
REMARK    5  A    between atoms: C_10  and  C_11 
REMARK       I    between atoms: C_11  and  N_13 
REMARK    6  A    between atoms: N_13  and  O_14 
REMARK    7  A    between atoms: C_19  and  N_20 
ROOT
HETATM    1  N   UNL     1      -4.170   1.532   0.048  1.00  0.00    -0.263 N 
ENDROOT
BRANCH   1   2
HETATM    2  S   UNL     1      -3.538  -0.035   0.001  1.00  0.00     0.265 S 
HETATM    3  O   UNL     1      -2.490  -0.021  -1.004  1.00  0.00    -0.200 OA
HETATM    4  O   UNL     1      -4.620  -0.994  -0.064  1.00  0.00    -0.200 OA
BRANCH   2   5
HETATM    5  C   UNL     1      -2.732  -0.293   1.578  1.00  0.00     0.080 A 
HETATM    6  C   UNL     1      -3.419  -0.038   2.764  1.00  0.00     0.026 A 
HETATM    7  C   UNL     1      -2.787  -0.243   3.996  1.00  0.00     0.008 A 
HETATM    8  C   UNL     1      -1.479  -0.736   4.060  1.00  0.00    -0.062 A 
HETATM    9  C   UNL     1      -0.807  -0.953   5.388  1.00  0.00     0.048 C 
HETATM   10  C   UNL     1      -0.812  -1.036   2.866  1.00  0.00     0.008 A 
HETATM   11  C   UNL     1      -1.429  -0.810   1.627  1.00  0.00     0.026 A 
ENDBRANCH   2   5
ENDBRANCH   1   2
BRANCH   1  12
HETATM   12  C   UNL     1      -3.275   2.692  -0.093  1.00  0.00     0.247 C 
BRANCH  12  13
HETATM   13  C   UNL     1      -2.785   3.259   1.229  1.00  0.00     0.260 C 
HETATM   14  O   UNL     1      -3.374   3.100   2.295  1.00  0.00    -0.270 OA
HETATM   15  N   UNL     1      -1.673   4.074   1.076  1.00  0.00    -0.236 N 
HETATM   16  H   UNL     1      -0.990   3.858   0.352  1.00  0.00     0.197 HD
BRANCH  15  17
HETATM   17  O   UNL     1      -1.114   4.551   2.283  1.00  0.00    -0.287 OA
HETATM   18  H   UNL     1      -1.587   5.395   2.412  1.00  0.00     0.244 HD
ENDBRANCH  15  17
ENDBRANCH  12  13
ENDBRANCH   1  12
BRANCH   1  19
HETATM   19  C   UNL     1      -5.582   1.751  -0.068  1.00  0.00     0.048 A 
HETATM   20  C   UNL     1      -6.293   2.080   1.089  1.00  0.00     0.030 A 
HETATM   21  C   UNL     1      -7.644   2.430   1.023  1.00  0.00     0.005 A 
HETATM   22  C   UNL     1      -8.288   2.483  -0.210  1.00  0.00     0.036 A 
HETATM   23  C   UNL     1      -7.574   2.169  -1.373  1.00  0.00     0.105 A 
HETATM   24  C   UNL     1      -6.218   1.794  -1.311  1.00  0.00     0.066 A 
BRANCH  23  25
HETATM   25  N   UNL     1      -8.252   2.293  -2.670  1.00  0.00    -0.116 N 
HETATM   26  O   UNL     1      -9.424   2.700  -2.676  1.00  0.00    -0.532 OA
HETATM   27  O   UNL     1      -7.606   2.007  -3.687  1.00  0.00    -0.532 OA
ENDBRANCH  23  25
ENDBRANCH   1  19
TORSDOF 7
