REMARK  7 active torsions:
REMARK  status: ('A' for Active; 'I' for Inactive)
REMARK    1  A    between atoms: C_2  and  C_3 
REMARK       I    between atoms: C_2  and  N_23 
REMARK    2  A    between atoms: C_3  and  N_4 
REMARK    3  A    between atoms: N_4  and  C_5 
REMARK    4  A    between atoms: N_4  and  S_14 
REMARK    5  A    between atoms: C_9  and  N_10 
REMARK    6  A    between atoms: S_14  and  C_17 
REMARK    7  A    between atoms: N_23  and  O_24 
ROOT
HETATM    1  N   UNL     1       1.901   1.228  -2.161  1.00  0.00    -0.163 NA
ENDROOT
BRANCH   1   2
HETATM    2  C   UNL     1       2.897   0.657  -1.189  1.00  0.00     0.218 C 
BRANCH   2   3
HETATM    3  C   UNL     1       2.623  -0.796  -0.840  1.00  0.00     0.255 C 
HETATM    4  O   UNL     1       2.972  -1.300   0.225  1.00  0.00    -0.270 OA
HETATM    5  N   UNL     1       2.062  -1.521  -1.867  1.00  0.00    -0.236 N 
HETATM    6  H   UNL     1       1.535  -1.048  -2.593  1.00  0.00     0.197 HD
BRANCH   5   7
HETATM    7  O   UNL     1       1.681  -2.847  -1.575  1.00  0.00    -0.287 OA
HETATM    8  H   UNL     1       2.494  -3.217  -1.175  1.00  0.00     0.244 HD
ENDBRANCH   5   7
ENDBRANCH   2   3
ENDBRANCH   1   2
BRANCH   1   9
HETATM    9  C   UNL     1       0.557   1.421  -1.652  1.00  0.00     0.028 A 
HETATM   10  C   UNL     1      -0.506   0.972  -2.444  1.00  0.00     0.025 A 
HETATM   11  C   UNL     1      -1.827   1.116  -2.015  1.00  0.00     0.004 A 
HETATM   12  C   UNL     1      -2.099   1.716  -0.787  1.00  0.00     0.036 A 
HETATM   13  C   UNL     1      -1.034   2.197  -0.008  1.00  0.00     0.104 A 
HETATM   14  C   UNL     1       0.292   2.082  -0.450  1.00  0.00     0.060 A 
BRANCH  13  15
HETATM   15  N   UNL     1      -1.315   2.800   1.297  1.00  0.00    -0.116 N 
HETATM   16  O   UNL     1      -2.488   2.789   1.700  1.00  0.00    -0.532 OA
HETATM   17  O   UNL     1      -0.360   3.272   1.934  1.00  0.00    -0.532 OA
ENDBRANCH  13  15
ENDBRANCH   1   9
BRANCH   1  18
HETATM   18  S   UNL     1       2.505   2.614  -2.997  1.00  0.00     0.248 S 
HETATM   19  O   UNL     1       1.438   3.190  -3.791  1.00  0.00    -0.205 OA
HETATM   20  O   UNL     1       3.248   3.406  -2.039  1.00  0.00    -0.205 OA
BRANCH  18  21
HETATM   21  C   UNL     1       3.659   1.910  -4.163  1.00  0.00     0.075 A 
HETATM   22  C   UNL     1       3.167   1.088  -5.184  1.00  0.00     0.025 A 
HETATM   23  C   UNL     1       4.031   0.643  -6.188  1.00  0.00     0.002 A 
HETATM   24  C   UNL     1       5.373   1.020  -6.172  1.00  0.00     0.000 A 
HETATM   25  C   UNL     1       5.864   1.828  -5.144  1.00  0.00     0.002 A 
HETATM   26  C   UNL     1       5.008   2.276  -4.133  1.00  0.00     0.025 A 
ENDBRANCH  18  21
ENDBRANCH   1  18
TORSDOF 7
