REMARK  7 active torsions:
REMARK  status: ('A' for Active; 'I' for Inactive)
REMARK    1  A    between atoms: C_2  and  C_3 
REMARK       I    between atoms: C_2  and  N_24 
REMARK    2  A    between atoms: C_3  and  N_4 
REMARK    3  A    between atoms: N_4  and  C_5 
REMARK    4  A    between atoms: N_4  and  S_14 
REMARK    5  A    between atoms: C_9  and  N_10 
REMARK    6  A    between atoms: S_14  and  C_17 
REMARK    7  A    between atoms: N_24  and  O_25 
ROOT
HETATM    1  N   UNL     1       1.900   1.987   1.479  1.00  0.00    -0.263 N 
ENDROOT
BRANCH   1   2
HETATM    2  C   UNL     1       2.852   1.071   0.797  1.00  0.00     0.247 C 
BRANCH   2   3
HETATM    3  C   UNL     1       2.547   0.856  -0.678  1.00  0.00     0.260 C 
HETATM    4  O   UNL     1       1.959   1.663  -1.396  1.00  0.00    -0.270 OA
HETATM    5  N   UNL     1       3.031  -0.338  -1.162  1.00  0.00    -0.236 N 
HETATM    6  H   UNL     1       3.545  -1.029  -0.627  1.00  0.00     0.197 HD
BRANCH   5   7
HETATM    7  O   UNL     1       2.798  -0.634  -2.520  1.00  0.00    -0.287 OA
HETATM    8  H   UNL     1       2.057  -0.033  -2.752  1.00  0.00     0.244 HD
ENDBRANCH   5   7
ENDBRANCH   2   3
ENDBRANCH   1   2
BRANCH   1   9
HETATM    9  C   UNL     1       0.527   1.561   1.575  1.00  0.00     0.048 A 
HETATM   10  C   UNL     1      -0.462   2.460   1.162  1.00  0.00     0.030 A 
HETATM   11  C   UNL     1      -1.814   2.119   1.244  1.00  0.00     0.005 A 
HETATM   12  C   UNL     1      -2.188   0.870   1.736  1.00  0.00     0.036 A 
HETATM   13  C   UNL     1      -1.197  -0.023   2.164  1.00  0.00     0.105 A 
HETATM   14  C   UNL     1       0.162   0.327   2.115  1.00  0.00     0.066 A 
BRANCH  13  15
HETATM   15  N   UNL     1      -1.583  -1.358   2.636  1.00  0.00    -0.116 N 
HETATM   16  O   UNL     1      -2.784  -1.663   2.592  1.00  0.00    -0.532 OA
HETATM   17  O   UNL     1      -0.680  -2.113   3.025  1.00  0.00    -0.532 OA
ENDBRANCH  13  15
ENDBRANCH   1   9
BRANCH   1  18
HETATM   18  S   UNL     1       2.519   2.722   2.894  1.00  0.00     0.268 S 
HETATM   19  O   UNL     1       1.483   3.460   3.582  1.00  0.00    -0.200 OA
HETATM   20  O   UNL     1       3.286   1.701   3.583  1.00  0.00    -0.200 OA
BRANCH  18  21
HETATM   21  C   UNL     1       3.664   3.911   2.264  1.00  0.00     0.118 A 
HETATM   22  C   UNL     1       5.018   3.866   2.622  1.00  0.00     0.028 A 
HETATM   23  C   UNL     1       5.890   4.843   2.133  1.00  0.00     0.002 A 
HETATM   24  C   UNL     1       5.416   5.854   1.295  1.00  0.00     0.003 A 
HETATM   25  C   UNL     1       4.067   5.890   0.944  1.00  0.00     0.044 A 
HETATM   26  C   UNL     1       3.191   4.925   1.437  1.00  0.00     0.139 A 
HETATM   27  F   UNL     1       1.906   4.984   1.090  1.00  0.00    -0.204 F 
ENDBRANCH  18  21
ENDBRANCH   1  18
TORSDOF 7
