REMARK  6 active torsions:
REMARK  status: ('A' for Active; 'I' for Inactive)
REMARK    1  A    between atoms: O_1  and  C_2 
REMARK    2  A    between atoms: C_5  and  C_6 
REMARK    3  A    between atoms: C_6  and  C_7 
REMARK    4  A    between atoms: C_7  and  C_8 
REMARK    5  A    between atoms: C_11  and  O_12 
REMARK    6  A    between atoms: C_13  and  O_14 
ROOT
HETATM    1  C   UNL     1      -5.510  -1.239  -0.120  1.00  0.00    -0.055 A 
HETATM    2  C   UNL     1      -6.291  -1.198   1.049  1.00  0.00     0.010 A 
HETATM    3  C   UNL     1      -7.688  -1.131   0.979  1.00  0.00     0.040 A 
HETATM    4  C   UNL     1      -8.302  -1.101  -0.267  1.00  0.00     0.098 A 
HETATM    5  C   UNL     1      -7.536  -1.133  -1.427  1.00  0.00     0.099 A 
HETATM    6  C   UNL     1      -6.150  -1.198  -1.367  1.00  0.00     0.046 A 
ENDROOT
BRANCH   1   7
HETATM    7  C   UNL     1      -4.002  -1.318  -0.038  1.00  0.00     0.043 C 
BRANCH   7   8
HETATM    8  C   UNL     1      -3.348   0.067  -0.046  1.00  0.00     0.043 C 
BRANCH   8   9
HETATM    9  C   UNL     1      -1.839  -0.005   0.033  1.00  0.00    -0.058 A 
HETATM   10  C   UNL     1      -1.062  -0.045  -1.135  1.00  0.00     0.010 A 
HETATM   11  C   UNL     1       0.333  -0.094  -1.061  1.00  0.00     0.037 A 
HETATM   12  C   UNL     1       0.952  -0.110   0.184  1.00  0.00     0.065 A 
HETATM   13  C   UNL     1       0.200  -0.086   1.351  1.00  0.00     0.037 A 
HETATM   14  C   UNL     1      -1.194  -0.036   1.278  1.00  0.00     0.010 A 
BRANCH  12  15
HETATM   15  O   UNL     1       2.310  -0.147   0.304  1.00  0.00    -0.361 OA
HETATM   16  H   UNL     1       2.700  -0.130  -0.585  1.00  0.00     0.217 HD
ENDBRANCH  12  15
ENDBRANCH   8   9
ENDBRANCH   7   8
ENDBRANCH   1   7
BRANCH   5  17
HETATM   17  O   UNL     1      -8.149  -1.105  -2.649  1.00  0.00    -0.358 OA
HETATM   18  H   UNL     1      -9.104  -1.073  -2.440  1.00  0.00     0.217 HD
ENDBRANCH   5  17
BRANCH   4  19
HETATM   19  O   UNL     1      -9.661  -1.041  -0.403  1.00  0.00    -0.358 OA
HETATM   20  H   UNL     1     -10.055  -1.020   0.486  1.00  0.00     0.217 HD
ENDBRANCH   4  19
TORSDOF 6
