REMARK  7 active torsions:
REMARK  status: ('A' for Active; 'I' for Inactive)
REMARK    1  A    between atoms: C_2  and  C_3 
REMARK       I    between atoms: C_2  and  N_24 
REMARK    2  A    between atoms: C_3  and  N_4 
REMARK    3  A    between atoms: N_4  and  C_5 
REMARK    4  A    between atoms: N_4  and  S_14 
REMARK    5  A    between atoms: C_9  and  N_10 
REMARK    6  A    between atoms: S_14  and  C_17 
REMARK    7  A    between atoms: N_24  and  O_25 
ROOT
HETATM    1  N   UNL     1       1.826  -1.915   1.500  1.00  0.00    -0.263 N 
ENDROOT
BRANCH   1   2
HETATM    2  C   UNL     1       2.832  -1.079   0.783  1.00  0.00     0.247 C 
BRANCH   2   3
HETATM    3  C   UNL     1       2.576   0.417   0.922  1.00  0.00     0.260 C 
HETATM    4  O   UNL     1       1.929   0.912   1.843  1.00  0.00    -0.270 OA
HETATM    5  N   UNL     1       3.195   1.229   0.005  1.00  0.00    -0.236 N 
HETATM    6  H   UNL     1       2.864   2.191  -0.029  1.00  0.00     0.197 HD
BRANCH   5   7
HETATM    7  O   UNL     1       3.616   0.663  -1.213  1.00  0.00    -0.287 OA
HETATM    8  H   UNL     1       4.586   0.616  -1.105  1.00  0.00     0.244 HD
ENDBRANCH   5   7
ENDBRANCH   2   3
ENDBRANCH   1   2
BRANCH   1   9
HETATM    9  C   UNL     1       0.487  -1.888   0.961  1.00  0.00     0.048 A 
HETATM   10  C   UNL     1      -0.561  -1.580   1.834  1.00  0.00     0.030 A 
HETATM   11  C   UNL     1      -1.879  -1.523   1.374  1.00  0.00     0.005 A 
HETATM   12  C   UNL     1      -2.157  -1.760   0.029  1.00  0.00     0.036 A 
HETATM   13  C   UNL     1      -1.107  -2.080  -0.843  1.00  0.00     0.105 A 
HETATM   14  C   UNL     1       0.213  -2.181  -0.378  1.00  0.00     0.066 A 
BRANCH  13  15
HETATM   15  N   UNL     1      -1.387  -2.263  -2.273  1.00  0.00    -0.116 N 
HETATM   16  O   UNL     1      -2.544  -2.057  -2.666  1.00  0.00    -0.532 OA
HETATM   17  O   UNL     1      -0.444  -2.589  -3.008  1.00  0.00    -0.532 OA
ENDBRANCH  13  15
ENDBRANCH   1   9
BRANCH   1  18
HETATM   18  S   UNL     1       2.393  -3.472   1.926  1.00  0.00     0.265 S 
HETATM   19  O   UNL     1       1.296  -4.272   2.427  1.00  0.00    -0.200 OA
HETATM   20  O   UNL     1       3.229  -3.936   0.834  1.00  0.00    -0.200 OA
BRANCH  18  21
HETATM   21  C   UNL     1       3.448  -3.150   3.324  1.00  0.00     0.083 A 
HETATM   22  C   UNL     1       2.895  -2.561   4.469  1.00  0.00     0.025 A 
HETATM   23  C   UNL     1       3.686  -2.385   5.609  1.00  0.00     0.005 A 
HETATM   24  C   UNL     1       5.018  -2.796   5.602  1.00  0.00     0.042 A 
HETATM   25  C   UNL     1       5.551  -3.378   4.455  1.00  0.00     0.117 A 
HETATM   26  F   UNL     1       6.829  -3.784   4.462  1.00  0.00    -0.206 F 
HETATM   27  C   UNL     1       4.782  -3.563   3.312  1.00  0.00     0.067 A 
ENDBRANCH  18  21
ENDBRANCH   1  18
TORSDOF 7
