REMARK  7 active torsions:
REMARK  status: ('A' for Active; 'I' for Inactive)
REMARK    1  A    between atoms: C_6  and  S_7 
REMARK    2  A    between atoms: S_7  and  N_10 
REMARK    3  A    between atoms: N_10  and  C_11 
REMARK    4  A    between atoms: N_10  and  C_16 
REMARK    5  A    between atoms: C_11  and  C_12 
REMARK       I    between atoms: C_12  and  N_14 
REMARK    6  A    between atoms: N_14  and  O_15 
REMARK    7  A    between atoms: C_20  and  N_21 
ROOT
HETATM    1  N   UNL     1      -1.661  -3.761   0.046  1.00  0.00    -0.163 NA
ENDROOT
BRANCH   1   2
HETATM    2  S   UNL     1      -2.398  -2.230   0.322  1.00  0.00     0.249 S 
HETATM    3  O   UNL     1      -3.049  -2.257   1.615  1.00  0.00    -0.205 OA
HETATM    4  O   UNL     1      -3.156  -1.950  -0.889  1.00  0.00    -0.205 OA
BRANCH   2   5
HETATM    5  C   UNL     1      -1.144  -0.941   0.439  1.00  0.00     0.086 C 
HETATM    6  C   UNL     1       0.243  -1.192   0.552  1.00  0.00    -0.038 C 
HETATM    7  C   UNL     1       1.142  -0.106   0.441  1.00  0.00     0.015 C 
HETATM    8  C   UNL     1       0.858  -2.526   0.858  1.00  0.00     0.050 C 
HETATM    9  C   UNL     1       0.701   1.210   0.289  1.00  0.00    -0.061 C 
HETATM   10  C   UNL     1       1.676   2.341   0.142  1.00  0.00     0.048 C 
HETATM   11  C   UNL     1      -0.666   1.459   0.360  1.00  0.00     0.015 C 
HETATM   12  C   UNL     1      -1.599   0.407   0.443  1.00  0.00    -0.038 C 
HETATM   13  C   UNL     1      -3.032   0.837   0.661  1.00  0.00     0.050 C 
ENDBRANCH   2   5
ENDBRANCH   1   2
BRANCH   1  14
HETATM   14  C   UNL     1      -1.279  -4.038  -1.378  1.00  0.00     0.218 C 
BRANCH  14  15
HETATM   15  C   UNL     1      -0.571  -5.382  -1.570  1.00  0.00     0.255 C 
HETATM   16  O   UNL     1       0.254  -5.854  -0.787  1.00  0.00    -0.270 OA
HETATM   17  N   UNL     1      -0.910  -6.044  -2.729  1.00  0.00    -0.236 N 
HETATM   18  H   UNL     1      -1.647  -5.773  -3.372  1.00  0.00     0.197 HD
BRANCH  17  19
HETATM   19  O   UNL     1      -0.301  -7.297  -2.959  1.00  0.00    -0.287 OA
HETATM   20  H   UNL     1       0.357  -7.358  -2.232  1.00  0.00     0.244 HD
ENDBRANCH  17  19
ENDBRANCH  14  15
ENDBRANCH   1  14
BRANCH   1  21
HETATM   21  C   UNL     1      -2.337  -4.852   0.714  1.00  0.00     0.028 A 
HETATM   22  C   UNL     1      -3.461  -5.480   0.161  1.00  0.00     0.025 A 
HETATM   23  C   UNL     1      -4.030  -6.585   0.799  1.00  0.00     0.004 A 
HETATM   24  C   UNL     1      -3.503  -7.044   2.007  1.00  0.00     0.036 A 
HETATM   25  C   UNL     1      -2.417  -6.371   2.585  1.00  0.00     0.104 A 
HETATM   26  C   UNL     1      -1.839  -5.269   1.948  1.00  0.00     0.060 A 
BRANCH  25  27
HETATM   27  N   UNL     1      -1.864  -6.839   3.859  1.00  0.00    -0.116 N 
HETATM   28  O   UNL     1      -2.317  -7.892   4.331  1.00  0.00    -0.532 OA
HETATM   29  O   UNL     1      -0.973  -6.159   4.388  1.00  0.00    -0.532 OA
ENDBRANCH  25  27
ENDBRANCH   1  21
TORSDOF 7
