REMARK  8 active torsions:
REMARK  status: ('A' for Active; 'I' for Inactive)
REMARK    1  A    between atoms: C_2  and  C_3 
REMARK       I    between atoms: C_2  and  N_27 
REMARK    2  A    between atoms: C_3  and  N_4 
REMARK    3  A    between atoms: N_4  and  C_5 
REMARK    4  A    between atoms: N_4  and  S_14 
REMARK    5  A    between atoms: C_9  and  N_10 
REMARK    6  A    between atoms: S_14  and  C_17 
REMARK    7  A    between atoms: C_20  and  C_21 
REMARK    8  A    between atoms: N_27  and  O_28 
ROOT
HETATM    1  N   UNL     1       2.010  -2.130  -1.285  1.00  0.00    -0.263 N 
ENDROOT
BRANCH   1   2
HETATM    2  C   UNL     1       2.985  -1.128  -0.777  1.00  0.00     0.247 C 
BRANCH   2   3
HETATM    3  C   UNL     1       2.473  -0.278   0.375  1.00  0.00     0.260 C 
HETATM    4  O   UNL     1       2.455   0.951   0.322  1.00  0.00    -0.270 OA
HETATM    5  N   UNL     1       2.102  -1.001   1.486  1.00  0.00    -0.236 N 
HETATM    6  H   UNL     1       1.800  -1.966   1.398  1.00  0.00     0.197 HD
BRANCH   5   7
HETATM    7  O   UNL     1       1.466  -0.257   2.513  1.00  0.00    -0.287 OA
HETATM    8  H   UNL     1       2.176   0.348   2.806  1.00  0.00     0.244 HD
ENDBRANCH   5   7
ENDBRANCH   2   3
ENDBRANCH   1   2
BRANCH   1   9
HETATM    9  C   UNL     1       0.625  -1.758  -1.378  1.00  0.00     0.048 A 
HETATM   10  C   UNL     1      -0.344  -2.625  -0.865  1.00  0.00     0.030 A 
HETATM   11  C   UNL     1      -1.696  -2.270  -0.895  1.00  0.00     0.005 A 
HETATM   12  C   UNL     1      -2.084  -1.048  -1.445  1.00  0.00     0.036 A 
HETATM   13  C   UNL     1      -1.110  -0.196  -1.981  1.00  0.00     0.105 A 
HETATM   14  C   UNL     1       0.243  -0.555  -1.972  1.00  0.00     0.066 A 
BRANCH  13  15
HETATM   15  N   UNL     1      -1.500   1.105  -2.538  1.00  0.00    -0.116 N 
HETATM   16  O   UNL     1      -2.685   1.448  -2.422  1.00  0.00    -0.532 OA
HETATM   17  O   UNL     1      -0.624   1.776  -3.100  1.00  0.00    -0.532 OA
ENDBRANCH  13  15
ENDBRANCH   1   9
BRANCH   1  18
HETATM   18  S   UNL     1       2.607  -3.170  -2.507  1.00  0.00     0.265 S 
HETATM   19  O   UNL     1       4.034  -3.317  -2.300  1.00  0.00    -0.200 OA
HETATM   20  O   UNL     1       1.751  -4.338  -2.560  1.00  0.00    -0.200 OA
BRANCH  18  21
HETATM   21  C   UNL     1       2.392  -2.291  -4.052  1.00  0.00     0.080 A 
HETATM   22  C   UNL     1       3.397  -1.449  -4.536  1.00  0.00     0.026 A 
HETATM   23  C   UNL     1       3.293  -0.909  -5.825  1.00  0.00     0.018 A 
HETATM   24  C   UNL     1       2.198  -1.220  -6.650  1.00  0.00     0.048 A 
HETATM   25  C   UNL     1       1.192  -2.063  -6.148  1.00  0.00     0.018 A 
HETATM   26  C   UNL     1       1.288  -2.599  -4.860  1.00  0.00     0.026 A 
BRANCH  24  27
HETATM   27  C   UNL     1       2.108  -0.709  -8.073  1.00  0.00     0.417 C 
HETATM   28  F   UNL     1       3.139   0.106  -8.428  1.00  0.00    -0.166 F 
HETATM   29  F   UNL     1       2.104  -1.722  -8.985  1.00  0.00    -0.166 F 
HETATM   30  F   UNL     1       0.970   0.002  -8.302  1.00  0.00    -0.166 F 
ENDBRANCH  24  27
ENDBRANCH  18  21
ENDBRANCH   1  18
TORSDOF 8
