REMARK  7 active torsions:
REMARK  status: ('A' for Active; 'I' for Inactive)
REMARK    1  A    between atoms: C_7  and  S_8 
REMARK    2  A    between atoms: S_8  and  N_11 
REMARK    3  A    between atoms: N_11  and  C_12 
REMARK    4  A    between atoms: N_11  and  C_17 
REMARK    5  A    between atoms: C_12  and  C_13 
REMARK       I    between atoms: C_13  and  N_15 
REMARK    6  A    between atoms: N_15  and  O_16 
REMARK    7  A    between atoms: C_21  and  N_22 
ROOT
HETATM    1  N   UNL     1       2.925  -2.283  -0.023  1.00  0.00    -0.163 NA
ENDROOT
BRANCH   1   2
HETATM    2  S   UNL     1       1.202  -2.581  -0.015  1.00  0.00     0.249 S 
HETATM    3  O   UNL     1       0.766  -2.484   1.360  1.00  0.00    -0.205 OA
HETATM    4  O   UNL     1       0.945  -3.783  -0.787  1.00  0.00    -0.205 OA
BRANCH   2   5
HETATM    5  C   UNL     1       0.501  -1.248  -0.992  1.00  0.00     0.081 A 
HETATM    6  C   UNL     1      -0.570  -0.443  -0.555  1.00  0.00    -0.039 A 
HETATM    7  C   UNL     1      -1.081  -0.402   0.857  1.00  0.00     0.050 C 
HETATM    8  C   UNL     1      -1.238   0.350  -1.509  1.00  0.00     0.008 A 
HETATM    9  C   UNL     1      -0.825   0.390  -2.841  1.00  0.00     0.001 A 
HETATM   10  C   UNL     1       0.275  -0.356  -3.248  1.00  0.00     0.002 A 
HETATM   11  C   UNL     1       0.928  -1.183  -2.332  1.00  0.00     0.025 A 
ENDBRANCH   2   5
ENDBRANCH   1   2
BRANCH   1  12
HETATM   12  C   UNL     1       3.371  -1.282   0.999  1.00  0.00     0.218 C 
BRANCH  12  13
HETATM   13  C   UNL     1       2.969   0.147   0.745  1.00  0.00     0.255 C 
HETATM   14  O   UNL     1       2.352   0.832   1.560  1.00  0.00    -0.270 OA
HETATM   15  N   UNL     1       3.435   0.674  -0.436  1.00  0.00    -0.236 N 
HETATM   16  H   UNL     1       3.633   0.095  -1.246  1.00  0.00     0.197 HD
BRANCH  15  17
HETATM   17  O   UNL     1       3.056   2.012  -0.693  1.00  0.00    -0.287 OA
HETATM   18  H   UNL     1       2.565   2.260   0.122  1.00  0.00     0.244 HD
ENDBRANCH  15  17
ENDBRANCH  12  13
ENDBRANCH   1  12
BRANCH   1  19
HETATM   19  C   UNL     1       3.675  -3.535   0.010  1.00  0.00     0.028 A 
HETATM   20  C   UNL     1       3.957  -4.209   1.207  1.00  0.00     0.025 A 
HETATM   21  C   UNL     1       4.593  -5.458   1.192  1.00  0.00     0.004 A 
HETATM   22  C   UNL     1       4.917  -6.060  -0.021  1.00  0.00     0.036 A 
HETATM   23  C   UNL     1       4.603  -5.403  -1.217  1.00  0.00     0.104 A 
HETATM   24  C   UNL     1       3.986  -4.141  -1.209  1.00  0.00     0.060 A 
BRANCH  23  25
HETATM   25  N   UNL     1       4.901  -6.055  -2.500  1.00  0.00    -0.116 N 
HETATM   26  O   UNL     1       5.346  -7.212  -2.471  1.00  0.00    -0.532 OA
HETATM   27  O   UNL     1       4.704  -5.402  -3.535  1.00  0.00    -0.532 OA
ENDBRANCH  23  25
ENDBRANCH   1  19
TORSDOF 7
