REMARK  5 active torsions:
REMARK  status: ('A' for Active; 'I' for Inactive)
REMARK    1  A    between atoms: N_1  and  C_2 
REMARK    2  A    between atoms: C_2  and  C_3 
REMARK       I    between atoms: C_3  and  N_5 
REMARK    3  A    between atoms: N_5  and  C_6 
REMARK    4  A    between atoms: C_6  and  C_7 
REMARK       I    between atoms: C_7  and  N_9 
REMARK    5  A    between atoms: N_9  and  O_10 
ROOT
HETATM    1  C   UNL     1       2.946   0.985  -1.249  1.00  0.00     0.245 C 
HETATM    2  O   UNL     1       2.151   1.567  -1.984  1.00  0.00    -0.272 OA
HETATM    3  N   UNL     1       4.306   1.159  -1.348  1.00  0.00    -0.351 N 
HETATM    4  H   UNL     1       4.903   0.645  -0.700  1.00  0.00     0.163 HD
ENDROOT
BRANCH   3   5
HETATM    5  C   UNL     1       4.883   2.054  -2.321  1.00  0.00     0.227 C 
BRANCH   5   6
HETATM    6  C   UNL     1       6.402   2.076  -2.243  1.00  0.00     0.258 C 
HETATM    7  O   UNL     1       7.062   1.418  -1.438  1.00  0.00    -0.270 OA
HETATM    8  N   UNL     1       6.990   2.913  -3.159  1.00  0.00    -0.236 N 
HETATM    9  H   UNL     1       6.500   3.459  -3.860  1.00  0.00     0.197 HD
BRANCH   8  10
HETATM   10  O   UNL     1       8.400   2.979  -3.154  1.00  0.00    -0.287 OA
HETATM   11  H   UNL     1       8.638   2.354  -2.434  1.00  0.00     0.244 HD
ENDBRANCH   8  10
ENDBRANCH   5   6
ENDBRANCH   3   5
BRANCH   1  12
HETATM   12  C   UNL     1       2.505  -0.013  -0.182  1.00  0.00     0.368 C 
BRANCH  12  13
HETATM   13  N   UNL     1       3.448  -0.031   0.951  1.00  0.00     0.087 N 
HETATM   14  H   UNL     1       3.023  -0.561   1.712  1.00  0.00     0.313 HD
HETATM   15  H   UNL     1       3.545   0.922   1.306  1.00  0.00     0.313 HD
ENDBRANCH  12  13
ENDBRANCH   1  12
TORSDOF 5
