REMARK  9 active torsions:
REMARK  status: ('A' for Active; 'I' for Inactive)
REMARK    1  A    between atoms: C_8  and  N_9 
REMARK       I    between atoms: N_9  and  C_10 
REMARK    2  A    between atoms: C_10  and  C_12 
REMARK    3  A    between atoms: C_12  and  C_13 
REMARK    4  A    between atoms: C_13  and  S_14 
REMARK    5  A    between atoms: S_14  and  C_15 
REMARK    6  A    between atoms: C_18  and  C_19 
REMARK    7  A    between atoms: C_19  and  C_20 
REMARK    8  A    between atoms: C_23  and  N_24 
REMARK       I    between atoms: N_24  and  C_25 
REMARK    9  A    between atoms: C_25  and  C_27 
ROOT
HETATM    1  C   UNL     1       4.334   7.817  -0.260  1.00  0.00     0.231 A 
HETATM    2  N   UNL     1       4.745   9.069  -0.276  1.00  0.00    -0.114 NA
HETATM    3  N   UNL     1       6.121   9.046  -0.264  1.00  0.00    -0.126 NA
HETATM    4  C   UNL     1       6.466   7.774  -0.242  1.00  0.00     0.175 A 
HETATM    5  O   UNL     1       5.383   6.929  -0.226  1.00  0.00    -0.268 OA
ENDROOT
BRANCH   4   6
HETATM    6  C   UNL     1       7.830   7.197  -0.213  1.00  0.00     0.148 C 
BRANCH   6   7
HETATM    7  C   UNL     1       8.406   6.978  -1.577  1.00  0.00     0.051 A 
HETATM    8  C   UNL     1       8.561   7.896  -2.603  1.00  0.00     0.081 A 
HETATM    9  S   UNL     1       9.254   7.130  -3.979  1.00  0.00    -0.062 SA
HETATM   10  C   UNL     1       9.387   5.687  -3.079  1.00  0.00     0.173 A 
HETATM   11  N   UNL     1       8.910   5.722  -1.864  1.00  0.00    -0.228 NA
BRANCH  10  12
HETATM   12  N   UNL     1       9.986   4.646  -3.734  1.00  0.00    -0.301 N 
HETATM   13  C   UNL     1      10.301   3.482  -3.067  1.00  0.00     0.257 C 
HETATM   14  O   UNL     1      10.130   3.263  -1.871  1.00  0.00    -0.267 OA
HETATM   15  H   UNL     1      10.176   4.781  -4.712  1.00  0.00     0.171 HD
BRANCH  13  16
HETATM   16  C   UNL     1      10.909   2.390  -3.884  1.00  0.00     0.032 A 
HETATM   17  C   UNL     1      11.587   2.612  -5.089  1.00  0.00     0.017 A 
HETATM   18  C   UNL     1      12.145   1.534  -5.785  1.00  0.00     0.001 A 
HETATM   19  C   UNL     1      12.038   0.238  -5.279  1.00  0.00     0.000 A 
HETATM   20  C   UNL     1      11.377   0.012  -4.075  1.00  0.00     0.001 A 
HETATM   21  C   UNL     1      10.816   1.082  -3.381  1.00  0.00     0.017 A 
ENDBRANCH  13  16
ENDBRANCH  10  12
ENDBRANCH   6   7
ENDBRANCH   4   6
BRANCH   1  22
HETATM   22  S   UNL     1       2.655   7.344  -0.275  1.00  0.00    -0.082 SA
BRANCH  22  23
HETATM   23  C   UNL     1       1.933   8.826  -1.061  1.00  0.00     0.092 C 
BRANCH  23  24
HETATM   24  C   UNL     1       0.413   8.750  -1.173  1.00  0.00     0.114 C 
BRANCH  24  25
HETATM   25  C   UNL     1      -0.092   9.956  -1.953  1.00  0.00     0.222 C 
HETATM   26  N   UNL     1      -0.463  11.024  -1.152  1.00  0.00    -0.326 N 
HETATM   27  H   UNL     1      -0.784  10.759  -0.230  1.00  0.00     0.169 HD
HETATM   28  O   UNL     1      -0.134   9.926  -3.180  1.00  0.00    -0.273 OA
BRANCH  26  29
HETATM   29  C   UNL     1      -1.006  12.239  -1.654  1.00  0.00     0.046 A 
HETATM   30  C   UNL     1      -0.307  13.064  -2.564  1.00  0.00    -0.035 A 
HETATM   31  C   UNL     1       1.064  12.747  -3.098  1.00  0.00     0.050 C 
HETATM   32  C   UNL     1      -0.878  14.293  -2.953  1.00  0.00     0.009 A 
HETATM   33  C   UNL     1      -2.105  14.714  -2.450  1.00  0.00     0.001 A 
HETATM   34  C   UNL     1      -2.787  13.906  -1.550  1.00  0.00     0.009 A 
HETATM   35  C   UNL     1      -2.252  12.672  -1.139  1.00  0.00    -0.035 A 
HETATM   36  C   UNL     1      -3.078  11.822  -0.209  1.00  0.00     0.050 C 
ENDBRANCH  26  29
ENDBRANCH  24  25
ENDBRANCH  23  24
ENDBRANCH  22  23
ENDBRANCH   1  22
TORSDOF 9
