REMARK  9 active torsions:
REMARK  status: ('A' for Active; 'I' for Inactive)
REMARK    1  A    between atoms: C_6  and  N_7 
REMARK       I    between atoms: N_7  and  C_8 
REMARK    2  A    between atoms: C_8  and  C_10 
REMARK    3  A    between atoms: C_10  and  C_11 
REMARK    4  A    between atoms: C_11  and  S_12 
REMARK    5  A    between atoms: S_12  and  C_13 
REMARK    6  A    between atoms: C_16  and  C_17 
REMARK    7  A    between atoms: C_17  and  C_18 
REMARK    8  A    between atoms: C_21  and  N_22 
REMARK       I    between atoms: N_22  and  C_23 
REMARK    9  A    between atoms: C_23  and  C_25 
ROOT
HETATM    1  C   UNL     1      -8.111  -4.861   0.024  1.00  0.00     0.231 A 
HETATM    2  N   UNL     1      -9.050  -5.786  -0.028  1.00  0.00    -0.114 NA
HETATM    3  N   UNL     1     -10.264  -5.130   0.007  1.00  0.00    -0.126 NA
HETATM    4  C   UNL     1      -9.987  -3.843   0.079  1.00  0.00     0.175 A 
HETATM    5  O   UNL     1      -8.637  -3.595   0.097  1.00  0.00    -0.268 OA
ENDROOT
BRANCH   4   6
HETATM    6  C   UNL     1     -10.914  -2.685   0.049  1.00  0.00     0.148 C 
BRANCH   6   7
HETATM    7  C   UNL     1     -11.380  -2.238   1.401  1.00  0.00     0.051 A 
HETATM    8  C   UNL     1     -12.076  -2.970   2.349  1.00  0.00     0.081 A 
HETATM    9  S   UNL     1     -12.468  -1.972   3.695  1.00  0.00    -0.062 SA
HETATM   10  C   UNL     1     -11.669  -0.667   2.938  1.00  0.00     0.173 A 
HETATM   11  N   UNL     1     -11.162  -0.915   1.759  1.00  0.00    -0.228 NA
BRANCH  10  12
HETATM   12  N   UNL     1     -11.659   0.500   3.658  1.00  0.00    -0.301 N 
HETATM   13  C   UNL     1     -10.921   1.588   3.238  1.00  0.00     0.257 C 
HETATM   14  O   UNL     1     -10.200   1.617   2.245  1.00  0.00    -0.267 OA
HETATM   15  H   UNL     1     -12.154   0.484   4.533  1.00  0.00     0.171 HD
BRANCH  13  16
HETATM   16  C   UNL     1     -10.974   2.826   4.084  1.00  0.00     0.032 A 
HETATM   17  C   UNL     1     -11.863   3.017   5.152  1.00  0.00     0.017 A 
HETATM   18  C   UNL     1     -11.845   4.218   5.874  1.00  0.00     0.001 A 
HETATM   19  C   UNL     1     -10.950   5.234   5.539  1.00  0.00     0.000 A 
HETATM   20  C   UNL     1     -10.067   5.057   4.479  1.00  0.00     0.001 A 
HETATM   21  C   UNL     1     -10.082   3.862   3.757  1.00  0.00     0.017 A 
ENDBRANCH  13  16
ENDBRANCH  10  12
ENDBRANCH   6   7
ENDBRANCH   4   6
BRANCH   1  22
HETATM   22  S   UNL     1      -6.391  -5.186  -0.006  1.00  0.00    -0.082 SA
BRANCH  22  23
HETATM   23  C   UNL     1      -6.360  -6.766  -0.911  1.00  0.00     0.092 C 
BRANCH  23  24
HETATM   24  C   UNL     1      -4.940  -7.337  -1.060  1.00  0.00     0.114 C 
BRANCH  24  25
HETATM   25  C   UNL     1      -5.000  -8.627  -1.869  1.00  0.00     0.222 C 
HETATM   26  N   UNL     1      -3.770  -9.241  -2.070  1.00  0.00    -0.327 N 
HETATM   27  H   UNL     1      -2.955  -8.810  -1.649  1.00  0.00     0.169 HD
HETATM   28  O   UNL     1      -6.079  -9.040  -2.288  1.00  0.00    -0.273 OA
BRANCH  26  29
HETATM   29  C   UNL     1      -3.553 -10.442  -2.808  1.00  0.00     0.035 A 
HETATM   30  C   UNL     1      -4.578 -11.139  -3.458  1.00  0.00     0.029 A 
HETATM   31  C   UNL     1      -4.322 -12.309  -4.173  1.00  0.00     0.003 A 
HETATM   32  C   UNL     1      -3.031 -12.811  -4.253  1.00  0.00     0.007 A 
HETATM   33  C   UNL     1      -1.981 -12.139  -3.615  1.00  0.00    -0.060 A 
HETATM   34  C   UNL     1      -0.587 -12.698  -3.706  1.00  0.00     0.048 C 
HETATM   35  C   UNL     1      -2.245 -10.958  -2.896  1.00  0.00     0.036 A 
ENDBRANCH  26  29
ENDBRANCH  24  25
ENDBRANCH  23  24
ENDBRANCH  22  23
ENDBRANCH   1  22
TORSDOF 9
