REMARK  9 active torsions:
REMARK  status: ('A' for Active; 'I' for Inactive)
REMARK    1  A    between atoms: C_7  and  N_8 
REMARK       I    between atoms: N_8  and  C_9 
REMARK    2  A    between atoms: C_9  and  C_11 
REMARK    3  A    between atoms: C_11  and  C_12 
REMARK    4  A    between atoms: C_12  and  S_13 
REMARK    5  A    between atoms: S_13  and  C_14 
REMARK    6  A    between atoms: C_17  and  C_18 
REMARK    7  A    between atoms: C_18  and  C_19 
REMARK    8  A    between atoms: C_22  and  N_23 
REMARK       I    between atoms: N_23  and  C_24 
REMARK    9  A    between atoms: C_24  and  C_26 
ROOT
HETATM    1  C   UNL     1       7.183  -4.975   0.085  1.00  0.00     0.231 A 
HETATM    2  N   UNL     1       7.635  -3.740   0.004  1.00  0.00    -0.114 NA
HETATM    3  N   UNL     1       9.012  -3.818   0.022  1.00  0.00    -0.126 NA
HETATM    4  C   UNL     1       9.310  -5.098   0.108  1.00  0.00     0.175 A 
HETATM    5  O   UNL     1       8.196  -5.895   0.160  1.00  0.00    -0.268 OA
ENDROOT
BRANCH   4   6
HETATM    6  C   UNL     1      10.639  -5.758   0.091  1.00  0.00     0.148 C 
BRANCH   6   7
HETATM    7  C   UNL     1      11.209  -5.990   1.456  1.00  0.00     0.051 A 
HETATM    8  C   UNL     1      11.588  -5.042   2.392  1.00  0.00     0.081 A 
HETATM    9  S   UNL     1      12.253  -5.816   3.777  1.00  0.00    -0.062 SA
HETATM   10  C   UNL     1      11.963  -7.331   3.048  1.00  0.00     0.173 A 
HETATM   11  N   UNL     1      11.444  -7.299   1.849  1.00  0.00    -0.228 NA
BRANCH  10  12
HETATM   12  N   UNL     1      12.314  -8.412   3.811  1.00  0.00    -0.301 N 
HETATM   13  C   UNL     1      12.031  -9.700   3.402  1.00  0.00     0.257 C 
HETATM   14  O   UNL     1      11.444 -10.002   2.367  1.00  0.00    -0.267 OA
HETATM   15  H   UNL     1      12.723  -8.209   4.707  1.00  0.00     0.171 HD
BRANCH  13  16
HETATM   16  C   UNL     1      12.450 -10.820   4.307  1.00  0.00     0.032 A 
HETATM   17  C   UNL     1      13.299 -10.664   5.411  1.00  0.00     0.017 A 
HETATM   18  C   UNL     1      13.653 -11.773   6.190  1.00  0.00     0.001 A 
HETATM   19  C   UNL     1      13.171 -13.043   5.872  1.00  0.00     0.000 A 
HETATM   20  C   UNL     1      12.332 -13.212   4.776  1.00  0.00     0.001 A 
HETATM   21  C   UNL     1      11.974 -12.108   4.000  1.00  0.00     0.017 A 
ENDBRANCH  13  16
ENDBRANCH  10  12
ENDBRANCH   6   7
ENDBRANCH   4   6
BRANCH   1  22
HETATM   22  S   UNL     1       5.500  -5.417   0.106  1.00  0.00    -0.082 SA
BRANCH  22  23
HETATM   23  C   UNL     1       4.783  -4.038  -0.843  1.00  0.00     0.092 C 
BRANCH  23  24
HETATM   24  C   UNL     1       3.271  -4.197  -0.955  1.00  0.00     0.114 C 
BRANCH  24  25
HETATM   25  C   UNL     1       2.728  -3.119  -1.870  1.00  0.00     0.222 C 
HETATM   26  N   UNL     1       2.294  -1.970  -1.218  1.00  0.00    -0.327 N 
HETATM   27  H   UNL     1       2.159  -2.028  -0.217  1.00  0.00     0.169 HD
HETATM   28  O   UNL     1       2.733  -3.317  -3.083  1.00  0.00    -0.273 OA
BRANCH  26  29
HETATM   29  C   UNL     1       1.877  -0.762  -1.847  1.00  0.00     0.040 A 
HETATM   30  C   UNL     1       1.169   0.224  -1.123  1.00  0.00    -0.035 A 
HETATM   31  C   UNL     1       0.798   0.082   0.329  1.00  0.00     0.050 C 
HETATM   32  C   UNL     1       0.757   1.401  -1.782  1.00  0.00     0.009 A 
HETATM   33  C   UNL     1       1.051   1.616  -3.128  1.00  0.00     0.001 A 
HETATM   34  C   UNL     1       1.770   0.662  -3.832  1.00  0.00     0.002 A 
HETATM   35  C   UNL     1       2.179  -0.511  -3.194  1.00  0.00     0.030 A 
ENDBRANCH  26  29
ENDBRANCH  24  25
ENDBRANCH  23  24
ENDBRANCH  22  23
ENDBRANCH   1  22
TORSDOF 9
