REMARK  10 active torsions:
REMARK  status: ('A' for Active; 'I' for Inactive)
REMARK    1  A    between atoms: C_2  and  C_3 
REMARK    2  A    between atoms: C_6  and  N_7 
REMARK       I    between atoms: N_7  and  C_8 
REMARK    3  A    between atoms: C_8  and  C_10 
REMARK    4  A    between atoms: C_10  and  C_11 
REMARK    5  A    between atoms: C_11  and  S_12 
REMARK    6  A    between atoms: S_12  and  C_13 
REMARK    7  A    between atoms: C_16  and  C_17 
REMARK    8  A    between atoms: C_17  and  C_18 
REMARK    9  A    between atoms: C_21  and  N_22 
REMARK       I    between atoms: N_22  and  C_23 
REMARK   10  A    between atoms: C_23  and  C_25 
ROOT
HETATM    1  C   UNL     1       5.982   0.273  11.219  1.00  0.00     0.231 A 
HETATM    2  N   UNL     1       5.788   1.500  10.777  1.00  0.00    -0.114 NA
HETATM    3  N   UNL     1       6.174   2.359  11.787  1.00  0.00    -0.126 NA
HETATM    4  C   UNL     1       6.586   1.596  12.779  1.00  0.00     0.175 A 
HETATM    5  O   UNL     1       6.480   0.259  12.497  1.00  0.00    -0.268 OA
ENDROOT
BRANCH   4   6
HETATM    6  C   UNL     1       7.066   1.986  14.127  1.00  0.00     0.148 C 
BRANCH   6   7
HETATM    7  C   UNL     1       8.543   2.226  14.192  1.00  0.00     0.051 A 
HETATM    8  C   UNL     1       9.276   3.216  13.559  1.00  0.00     0.081 A 
HETATM    9  S   UNL     1      10.924   3.136  14.052  1.00  0.00    -0.062 SA
HETATM   10  C   UNL     1      10.553   1.773  15.006  1.00  0.00     0.173 A 
HETATM   11  N   UNL     1       9.297   1.409  15.019  1.00  0.00    -0.228 NA
BRANCH  10  12
HETATM   12  N   UNL     1      11.615   1.207  15.664  1.00  0.00    -0.301 N 
HETATM   13  C   UNL     1      11.486  -0.027  16.260  1.00  0.00     0.257 C 
HETATM   14  O   UNL     1      10.494  -0.756  16.216  1.00  0.00    -0.267 OA
HETATM   15  H   UNL     1      12.506   1.670  15.587  1.00  0.00     0.171 HD
BRANCH  13  16
HETATM   16  C   UNL     1      12.677  -0.554  16.982  1.00  0.00     0.032 A 
HETATM   17  C   UNL     1      13.593   0.272  17.644  1.00  0.00     0.017 A 
HETATM   18  C   UNL     1      14.631  -0.301  18.388  1.00  0.00     0.001 A 
HETATM   19  C   UNL     1      14.758  -1.689  18.472  1.00  0.00     0.000 A 
HETATM   20  C   UNL     1      13.856  -2.514  17.805  1.00  0.00     0.001 A 
HETATM   21  C   UNL     1      12.820  -1.948  17.064  1.00  0.00     0.017 A 
ENDBRANCH  13  16
ENDBRANCH  10  12
ENDBRANCH   6   7
ENDBRANCH   4   6
BRANCH   1  22
HETATM   22  S   UNL     1       5.637  -1.185  10.323  1.00  0.00    -0.082 SA
BRANCH  22  23
HETATM   23  C   UNL     1       5.799  -0.557   8.625  1.00  0.00     0.092 C 
BRANCH  23  24
HETATM   24  C   UNL     1       5.569  -1.645   7.569  1.00  0.00     0.114 C 
BRANCH  24  25
HETATM   25  C   UNL     1       5.775  -1.030   6.190  1.00  0.00     0.222 C 
HETATM   26  N   UNL     1       5.584  -1.913   5.135  1.00  0.00    -0.327 N 
HETATM   27  H   UNL     1       5.332  -2.870   5.357  1.00  0.00     0.169 HD
HETATM   28  O   UNL     1       6.089   0.153   6.080  1.00  0.00    -0.273 OA
BRANCH  26  29
HETATM   29  C   UNL     1       5.702  -1.594   3.755  1.00  0.00     0.034 A 
HETATM   30  C   UNL     1       6.030  -0.318   3.289  1.00  0.00     0.030 A 
HETATM   31  C   UNL     1       6.119  -0.043   1.921  1.00  0.00     0.009 A 
HETATM   32  C   UNL     1       5.878  -1.041   0.977  1.00  0.00    -0.058 A 
HETATM   33  C   UNL     1       5.568  -2.328   1.432  1.00  0.00     0.009 A 
HETATM   34  C   UNL     1       5.477  -2.600   2.809  1.00  0.00     0.030 A 
BRANCH  32  35
HETATM   35  C   UNL     1       5.967  -0.714  -0.492  1.00  0.00     0.034 C 
HETATM   36  C   UNL     1       7.389  -0.810  -1.022  1.00  0.00     0.010 C 
ENDBRANCH  32  35
ENDBRANCH  26  29
ENDBRANCH  24  25
ENDBRANCH  23  24
ENDBRANCH  22  23
ENDBRANCH   1  22
TORSDOF 10
