REMARK  9 active torsions:
REMARK  status: ('A' for Active; 'I' for Inactive)
REMARK    1  A    between atoms: C_6  and  N_7 
REMARK       I    between atoms: N_7  and  C_8 
REMARK    2  A    between atoms: C_8  and  C_10 
REMARK    3  A    between atoms: C_10  and  C_11 
REMARK    4  A    between atoms: C_11  and  S_12 
REMARK    5  A    between atoms: S_12  and  C_13 
REMARK    6  A    between atoms: C_16  and  C_17 
REMARK    7  A    between atoms: C_17  and  C_18 
REMARK    8  A    between atoms: C_21  and  N_22 
REMARK       I    between atoms: N_22  and  C_23 
REMARK    9  A    between atoms: C_23  and  C_25 
ROOT
HETATM    1  C   UNL     1      -4.871  -8.068  -0.079  1.00  0.00     0.231 A 
HETATM    2  N   UNL     1      -5.210  -9.341  -0.087  1.00  0.00    -0.114 NA
HETATM    3  N   UNL     1      -6.585  -9.398  -0.112  1.00  0.00    -0.126 NA
HETATM    4  C   UNL     1      -7.008  -8.147  -0.119  1.00  0.00     0.175 A 
HETATM    5  O   UNL     1      -5.975  -7.242  -0.080  1.00  0.00    -0.268 OA
ENDROOT
BRANCH   4   6
HETATM    6  C   UNL     1      -8.408  -7.648  -0.131  1.00  0.00     0.148 C 
BRANCH   6   7
HETATM    7  C   UNL     1      -8.953  -7.444  -1.510  1.00  0.00     0.051 A 
HETATM    8  C   UNL     1      -9.100  -8.373  -2.528  1.00  0.00     0.081 A 
HETATM    9  S   UNL     1      -9.790  -7.622  -3.916  1.00  0.00    -0.062 SA
HETATM   10  C   UNL     1      -9.917  -6.170  -3.037  1.00  0.00     0.173 A 
HETATM   11  N   UNL     1      -9.445  -6.190  -1.818  1.00  0.00    -0.228 NA
BRANCH  10  12
HETATM   12  N   UNL     1     -10.515  -5.133  -3.691  1.00  0.00    -0.301 N 
HETATM   13  C   UNL     1     -10.947  -4.022  -2.995  1.00  0.00     0.257 C 
HETATM   14  O   UNL     1     -10.879  -3.852  -1.782  1.00  0.00    -0.267 OA
HETATM   15  H   UNL     1     -10.654  -5.241  -4.683  1.00  0.00     0.171 HD
BRANCH  13  16
HETATM   16  C   UNL     1     -11.577  -2.946  -3.804  1.00  0.00     0.032 A 
HETATM   17  C   UNL     1     -12.231  -3.190  -5.017  1.00  0.00     0.017 A 
HETATM   18  C   UNL     1     -12.835  -2.135  -5.706  1.00  0.00     0.001 A 
HETATM   19  C   UNL     1     -12.797  -0.842  -5.183  1.00  0.00     0.000 A 
HETATM   20  C   UNL     1     -12.158  -0.595  -3.970  1.00  0.00     0.001 A 
HETATM   21  C   UNL     1     -11.551  -1.644  -3.281  1.00  0.00     0.017 A 
ENDBRANCH  13  16
ENDBRANCH  10  12
ENDBRANCH   6   7
ENDBRANCH   4   6
BRANCH   1  22
HETATM   22  S   UNL     1      -3.224  -7.481  -0.050  1.00  0.00    -0.082 SA
BRANCH  22  23
HETATM   23  C   UNL     1      -2.359  -8.856  -0.885  1.00  0.00     0.092 C 
BRANCH  23  24
HETATM   24  C   UNL     1      -0.838  -8.631  -0.987  1.00  0.00     0.114 C 
BRANCH  24  25
HETATM   25  C   UNL     1      -0.201  -9.801  -1.732  1.00  0.00     0.222 C 
HETATM   26  N   UNL     1       1.184  -9.717  -1.887  1.00  0.00    -0.327 N 
HETATM   27  H   UNL     1       1.636  -8.908  -1.490  1.00  0.00     0.169 HD
HETATM   28  O   UNL     1      -0.915 -10.708  -2.147  1.00  0.00    -0.273 OA
BRANCH  26  29
HETATM   29  C   UNL     1       2.023 -10.676  -2.554  1.00  0.00     0.041 A 
HETATM   30  C   UNL     1       1.469 -11.835  -3.125  1.00  0.00     0.030 A 
HETATM   31  C   UNL     1       2.239 -12.790  -3.781  1.00  0.00     0.003 A 
HETATM   32  C   UNL     1       3.607 -12.621  -3.883  1.00  0.00     0.007 A 
HETATM   33  C   UNL     1       4.219 -11.491  -3.327  1.00  0.00    -0.054 A 
HETATM   34  C   UNL     1       5.717 -11.383  -3.462  1.00  0.00     0.049 C 
HETATM   35  C   UNL     1       3.432 -10.496  -2.662  1.00  0.00    -0.029 A 
HETATM   36  C   UNL     1       4.164  -9.298  -2.110  1.00  0.00     0.051 C 
ENDBRANCH  26  29
ENDBRANCH  24  25
ENDBRANCH  23  24
ENDBRANCH  22  23
ENDBRANCH   1  22
TORSDOF 9
