REMARK  9 active torsions:
REMARK  status: ('A' for Active; 'I' for Inactive)
REMARK    1  A    between atoms: C_2  and  C_3 
REMARK       I    between atoms: C_2  and  N_26 
REMARK    2  A    between atoms: C_3  and  C_4 
REMARK    3  A    between atoms: C_4  and  S_5 
REMARK    4  A    between atoms: S_5  and  C_6 
REMARK    5  A    between atoms: C_9  and  C_10 
REMARK    6  A    between atoms: C_10  and  C_11 
REMARK    7  A    between atoms: C_14  and  N_15 
REMARK       I    between atoms: N_15  and  C_16 
REMARK    8  A    between atoms: C_16  and  C_18 
REMARK    9  A    between atoms: N_26  and  C_27 
ROOT
HETATM    1  C   UNL     1       1.857  -0.864   5.329  1.00  0.00     0.231 A 
HETATM    2  N   UNL     1       1.488  -2.055   5.753  1.00  0.00    -0.114 NA
HETATM    3  N   UNL     1       0.576  -1.853   6.772  1.00  0.00    -0.126 NA
HETATM    4  C   UNL     1       0.448  -0.548   6.902  1.00  0.00     0.175 A 
HETATM    5  O   UNL     1       1.231   0.146   6.017  1.00  0.00    -0.268 OA
ENDROOT
BRANCH   4   6
HETATM    6  C   UNL     1      -0.409   0.231   7.828  1.00  0.00     0.148 C 
BRANCH   6   7
HETATM    7  C   UNL     1       0.306   0.623   9.084  1.00  0.00     0.051 A 
HETATM    8  C   UNL     1       0.864  -0.202  10.046  1.00  0.00     0.081 A 
HETATM    9  S   UNL     1       1.645   0.748  11.253  1.00  0.00    -0.062 SA
HETATM   10  C   UNL     1       1.098   2.157  10.466  1.00  0.00     0.173 A 
HETATM   11  N   UNL     1       0.421   1.973   9.364  1.00  0.00    -0.228 NA
BRANCH  10  12
HETATM   12  N   UNL     1       1.435   3.343  11.065  1.00  0.00    -0.301 N 
HETATM   13  C   UNL     1       0.809   4.508  10.680  1.00  0.00     0.257 C 
HETATM   14  O   UNL     1      -0.120   4.605   9.883  1.00  0.00    -0.267 OA
HETATM   15  H   UNL     1       2.048   3.304  11.862  1.00  0.00     0.171 HD
BRANCH  13  16
HETATM   16  C   UNL     1       1.262   5.761  11.344  1.00  0.00     0.032 A 
HETATM   17  C   UNL     1       2.580   5.963  11.768  1.00  0.00     0.017 A 
HETATM   18  C   UNL     1       2.953   7.201  12.302  1.00  0.00     0.001 A 
HETATM   19  C   UNL     1       2.019   8.233  12.412  1.00  0.00     0.000 A 
HETATM   20  C   UNL     1       0.705   8.034  11.998  1.00  0.00     0.001 A 
HETATM   21  C   UNL     1       0.329   6.803  11.465  1.00  0.00     0.017 A 
ENDBRANCH  13  16
ENDBRANCH  10  12
ENDBRANCH   6   7
ENDBRANCH   4   6
BRANCH   1  22
HETATM   22  S   UNL     1       3.030  -0.545   4.086  1.00  0.00    -0.082 SA
BRANCH  22  23
HETATM   23  C   UNL     1       2.993  -2.090   3.120  1.00  0.00     0.092 C 
BRANCH  23  24
HETATM   24  C   UNL     1       4.025  -1.997   1.992  1.00  0.00     0.114 C 
BRANCH  24  25
HETATM   25  C   UNL     1       3.992  -3.221   1.091  1.00  0.00     0.222 C 
HETATM   26  O   UNL     1       3.248  -4.166   1.332  1.00  0.00    -0.273 OA
HETATM   27  N   UNL     1       4.868  -3.115   0.018  1.00  0.00    -0.327 N 
HETATM   28  H   UNL     1       5.441  -2.278  -0.022  1.00  0.00     0.169 HD
BRANCH  27  29
HETATM   29  C   UNL     1       5.049  -4.055  -1.028  1.00  0.00     0.034 A 
HETATM   30  C   UNL     1       4.358  -5.268  -1.113  1.00  0.00     0.029 A 
HETATM   31  C   UNL     1       4.601  -6.154  -2.165  1.00  0.00     0.002 A 
HETATM   32  C   UNL     1       5.529  -5.836  -3.151  1.00  0.00     0.000 A 
HETATM   33  C   UNL     1       6.211  -4.625  -3.091  1.00  0.00     0.002 A 
HETATM   34  C   UNL     1       5.974  -3.740  -2.036  1.00  0.00     0.029 A 
ENDBRANCH  27  29
ENDBRANCH  24  25
ENDBRANCH  23  24
ENDBRANCH  22  23
ENDBRANCH   1  22
TORSDOF 9
