REMARK  9 active torsions:
REMARK  status: ('A' for Active; 'I' for Inactive)
REMARK    1  A    between atoms: C_5  and  N_6 
REMARK       I    between atoms: N_6  and  C_7 
REMARK    2  A    between atoms: C_7  and  C_9 
REMARK    3  A    between atoms: C_9  and  C_10 
REMARK    4  A    between atoms: C_10  and  S_11 
REMARK    5  A    between atoms: S_11  and  C_12 
REMARK    6  A    between atoms: C_15  and  C_16 
REMARK    7  A    between atoms: C_16  and  C_17 
REMARK    8  A    between atoms: C_20  and  N_21 
REMARK       I    between atoms: N_21  and  C_22 
REMARK    9  A    between atoms: C_22  and  C_24 
ROOT
HETATM    1  C   UNL     1      -8.463   4.260  -0.133  1.00  0.00     0.231 A 
HETATM    2  N   UNL     1      -9.732   4.613  -0.198  1.00  0.00    -0.114 NA
HETATM    3  N   UNL     1      -9.772   5.992  -0.152  1.00  0.00    -0.126 NA
HETATM    4  C   UNL     1      -8.522   6.396  -0.059  1.00  0.00     0.175 A 
HETATM    5  O   UNL     1      -7.632   5.351  -0.039  1.00  0.00    -0.268 OA
ENDROOT
BRANCH   4   6
HETATM    6  C   UNL     1      -7.980   7.778  -0.071  1.00  0.00     0.148 C 
BRANCH   6   7
HETATM    7  C   UNL     1      -7.852   8.399   1.287  1.00  0.00     0.051 A 
HETATM    8  C   UNL     1      -8.852   8.636   2.216  1.00  0.00     0.081 A 
HETATM    9  S   UNL     1      -8.207   9.465   3.580  1.00  0.00    -0.062 SA
HETATM   10  C   UNL     1      -6.663   9.419   2.855  1.00  0.00     0.173 A 
HETATM   11  N   UNL     1      -6.604   8.865   1.673  1.00  0.00    -0.228 NA
BRANCH  10  12
HETATM   12  N   UNL     1      -5.655   9.975   3.602  1.00  0.00    -0.301 N 
HETATM   13  C   UNL     1      -4.338   9.876   3.199  1.00  0.00     0.257 C 
HETATM   14  O   UNL     1      -3.946   9.292   2.192  1.00  0.00    -0.267 OA
HETATM   15  H   UNL     1      -5.925  10.377   4.482  1.00  0.00     0.171 HD
BRANCH  13  16
HETATM   16  C   UNL     1      -3.297  10.502   4.080  1.00  0.00     0.032 A 
HETATM   17  C   UNL     1      -3.577  11.347   5.163  1.00  0.00     0.017 A 
HETATM   18  C   UNL     1      -2.529  11.888   5.922  1.00  0.00     0.001 A 
HETATM   19  C   UNL     1      -1.203  11.597   5.605  1.00  0.00     0.000 A 
HETATM   20  C   UNL     1      -0.913  10.766   4.530  1.00  0.00     0.001 A 
HETATM   21  C   UNL     1      -1.952  10.224   3.775  1.00  0.00     0.017 A 
ENDBRANCH  13  16
ENDBRANCH  10  12
ENDBRANCH   6   7
ENDBRANCH   4   6
BRANCH   1  22
HETATM   22  S   UNL     1      -7.874   2.620  -0.148  1.00  0.00    -0.082 SA
BRANCH  22  23
HETATM   23  C   UNL     1      -9.211   1.826  -1.087  1.00  0.00     0.092 C 
BRANCH  23  24
HETATM   24  C   UNL     1      -9.003   0.317  -1.247  1.00  0.00     0.114 C 
BRANCH  24  25
HETATM   25  C   UNL     1     -10.144  -0.240  -2.089  1.00  0.00     0.222 C 
HETATM   26  N   UNL     1     -10.076  -1.609  -2.302  1.00  0.00    -0.327 N 
HETATM   27  H   UNL     1      -9.304  -2.112  -1.881  1.00  0.00     0.169 HD
HETATM   28  O   UNL     1     -11.017   0.505  -2.518  1.00  0.00    -0.273 OA
BRANCH  26  29
HETATM   29  C   UNL     1     -11.001  -2.380  -3.058  1.00  0.00     0.034 A 
HETATM   30  C   UNL     1     -12.111  -1.833  -3.705  1.00  0.00     0.030 A 
HETATM   31  C   UNL     1     -12.996  -2.632  -4.434  1.00  0.00     0.009 A 
HETATM   32  C   UNL     1     -12.793  -4.006  -4.540  1.00  0.00    -0.062 A 
HETATM   33  C   UNL     1     -13.748  -4.857  -5.319  1.00  0.00     0.048 C 
HETATM   34  C   UNL     1     -11.682  -4.567  -3.898  1.00  0.00     0.009 A 
HETATM   35  C   UNL     1     -10.793  -3.762  -3.163  1.00  0.00     0.030 A 
ENDBRANCH  26  29
ENDBRANCH  24  25
ENDBRANCH  23  24
ENDBRANCH  22  23
ENDBRANCH   1  22
TORSDOF 9
