REMARK  11 active torsions:
REMARK  status: ('A' for Active; 'I' for Inactive)
REMARK    1  A    between atoms: C_2  and  O_3 
REMARK    2  A    between atoms: O_3  and  C_4 
REMARK    3  A    between atoms: C_7  and  N_8 
REMARK       I    between atoms: N_8  and  C_9 
REMARK    4  A    between atoms: C_9  and  C_11 
REMARK    5  A    between atoms: C_11  and  C_12 
REMARK    6  A    between atoms: C_12  and  S_13 
REMARK    7  A    between atoms: S_13  and  C_14 
REMARK    8  A    between atoms: C_17  and  C_18 
REMARK    9  A    between atoms: C_18  and  C_19 
REMARK   10  A    between atoms: C_22  and  N_23 
REMARK       I    between atoms: N_23  and  C_24 
REMARK   11  A    between atoms: C_24  and  C_26 
ROOT
HETATM    1  C   UNL     1      14.128   0.230  -3.007  1.00  0.00     0.231 A 
HETATM    2  N   UNL     1      13.382  -0.229  -3.993  1.00  0.00    -0.114 NA
HETATM    3  N   UNL     1      14.166  -1.096  -4.724  1.00  0.00    -0.126 NA
HETATM    4  C   UNL     1      15.342  -1.113  -4.133  1.00  0.00     0.175 A 
HETATM    5  O   UNL     1      15.399  -0.284  -3.041  1.00  0.00    -0.268 OA
ENDROOT
BRANCH   1   6
HETATM    6  S   UNL     1      13.585   1.365  -1.795  1.00  0.00    -0.082 SA
BRANCH   6   7
HETATM    7  C   UNL     1      11.798   1.041  -1.871  1.00  0.00     0.092 C 
BRANCH   7   8
HETATM    8  C   UNL     1      10.974   1.915  -0.918  1.00  0.00     0.114 C 
BRANCH   8   9
HETATM    9  C   UNL     1       9.515   1.508  -1.048  1.00  0.00     0.222 C 
HETATM   10  N   UNL     1       8.634   2.225  -0.248  1.00  0.00    -0.327 N 
HETATM   11  H   UNL     1       9.021   2.950   0.344  1.00  0.00     0.169 HD
HETATM   12  O   UNL     1       9.194   0.601  -1.812  1.00  0.00    -0.273 OA
BRANCH  10  13
HETATM   13  C   UNL     1       7.231   2.010  -0.170  1.00  0.00     0.034 A 
HETATM   14  C   UNL     1       6.573   1.046  -0.933  1.00  0.00     0.032 A 
HETATM   15  C   UNL     1       5.198   0.840  -0.823  1.00  0.00     0.039 A 
HETATM   16  C   UNL     1       4.436   1.597   0.059  1.00  0.00     0.068 A 
HETATM   17  C   UNL     1       5.078   2.579   0.818  1.00  0.00     0.039 A 
HETATM   18  C   UNL     1       6.465   2.792   0.704  1.00  0.00     0.032 A 
BRANCH  16  19
HETATM   19  O   UNL     1       3.084   1.458   0.246  1.00  0.00    -0.352 OA
BRANCH  19  20
HETATM   20  C   UNL     1       2.458   0.423  -0.520  1.00  0.00     0.171 C 
HETATM   21  C   UNL     1       0.977   0.362  -0.202  1.00  0.00     0.034 C 
ENDBRANCH  19  20
ENDBRANCH  16  19
ENDBRANCH  10  13
ENDBRANCH   8   9
ENDBRANCH   7   8
ENDBRANCH   6   7
ENDBRANCH   1   6
BRANCH   4  22
HETATM   22  C   UNL     1      16.574  -1.832  -4.531  1.00  0.00     0.148 C 
BRANCH  22  23
HETATM   23  C   UNL     1      16.693  -3.202  -3.938  1.00  0.00     0.051 A 
HETATM   24  C   UNL     1      15.864  -4.296  -4.127  1.00  0.00     0.081 A 
HETATM   25  S   UNL     1      16.520  -5.675  -3.326  1.00  0.00    -0.062 SA
HETATM   26  C   UNL     1      17.796  -4.706  -2.747  1.00  0.00     0.173 A 
HETATM   27  N   UNL     1      17.793  -3.461  -3.140  1.00  0.00    -0.228 NA
BRANCH  26  28
HETATM   28  N   UNL     1      18.707  -5.337  -1.940  1.00  0.00    -0.301 N 
HETATM   29  C   UNL     1      19.620  -4.593  -1.221  1.00  0.00     0.257 C 
HETATM   30  O   UNL     1      19.664  -3.369  -1.149  1.00  0.00    -0.267 OA
HETATM   31  H   UNL     1      18.601  -6.329  -1.805  1.00  0.00     0.171 HD
BRANCH  29  32
HETATM   32  C   UNL     1      20.607  -5.355  -0.407  1.00  0.00     0.032 A 
HETATM   33  C   UNL     1      21.106  -6.607  -0.788  1.00  0.00     0.017 A 
HETATM   34  C   UNL     1      22.096  -7.223  -0.014  1.00  0.00     0.001 A 
HETATM   35  C   UNL     1      22.588  -6.599   1.134  1.00  0.00     0.000 A 
HETATM   36  C   UNL     1      22.092  -5.355   1.517  1.00  0.00     0.001 A 
HETATM   37  C   UNL     1      21.106  -4.736   0.749  1.00  0.00     0.017 A 
ENDBRANCH  29  32
ENDBRANCH  26  28
ENDBRANCH  22  23
ENDBRANCH   4  22
TORSDOF 11
