REMARK  9 active torsions:
REMARK  status: ('A' for Active; 'I' for Inactive)
REMARK    1  A    between atoms: C_7  and  N_8 
REMARK       I    between atoms: N_8  and  C_9 
REMARK    2  A    between atoms: C_9  and  C_11 
REMARK    3  A    between atoms: C_11  and  C_12 
REMARK    4  A    between atoms: C_12  and  S_13 
REMARK    5  A    between atoms: S_13  and  C_14 
REMARK    6  A    between atoms: C_17  and  C_18 
REMARK    7  A    between atoms: C_18  and  C_19 
REMARK    8  A    between atoms: C_22  and  N_23 
REMARK       I    between atoms: N_23  and  C_24 
REMARK    9  A    between atoms: C_24  and  C_26 
ROOT
HETATM    1  C   UNL     1      -7.732  -5.053  -0.112  1.00  0.00     0.231 A 
HETATM    2  N   UNL     1      -8.694  -5.955  -0.144  1.00  0.00    -0.114 NA
HETATM    3  N   UNL     1      -9.888  -5.271  -0.145  1.00  0.00    -0.126 NA
HETATM    4  C   UNL     1      -9.579  -3.991  -0.118  1.00  0.00     0.175 A 
HETATM    5  O   UNL     1      -8.224  -3.772  -0.080  1.00  0.00    -0.268 OA
ENDROOT
BRANCH   4   6
HETATM    6  C   UNL     1     -10.488  -2.822  -0.073  1.00  0.00     0.148 C 
BRANCH   6   7
HETATM    7  C   UNL     1     -10.913  -2.345  -1.427  1.00  0.00     0.051 A 
HETATM    8  C   UNL     1     -11.610  -3.041  -2.401  1.00  0.00     0.081 A 
HETATM    9  S   UNL     1     -11.959  -2.003  -3.731  1.00  0.00    -0.062 SA
HETATM   10  C   UNL     1     -11.115  -0.748  -2.944  1.00  0.00     0.173 A 
HETATM   11  N   UNL     1     -10.637  -1.034  -1.762  1.00  0.00    -0.228 NA
BRANCH  10  12
HETATM   12  N   UNL     1     -11.041   0.434  -3.631  1.00  0.00    -0.301 N 
HETATM   13  C   UNL     1     -10.201   1.438  -3.199  1.00  0.00     0.257 C 
HETATM   14  O   UNL     1      -9.415   1.379  -2.259  1.00  0.00    -0.267 OA
HETATM   15  H   UNL     1     -11.529   0.490  -4.511  1.00  0.00     0.171 HD
BRANCH  13  16
HETATM   16  C   UNL     1     -10.218   2.696  -3.992  1.00  0.00     0.032 A 
HETATM   17  C   UNL     1     -11.375   3.185  -4.611  1.00  0.00     0.017 A 
HETATM   18  C   UNL     1     -11.337   4.415  -5.275  1.00  0.00     0.001 A 
HETATM   19  C   UNL     1     -10.154   5.156  -5.323  1.00  0.00     0.000 A 
HETATM   20  C   UNL     1      -9.001   4.670  -4.712  1.00  0.00     0.001 A 
HETATM   21  C   UNL     1      -9.033   3.446  -4.046  1.00  0.00     0.017 A 
ENDBRANCH  13  16
ENDBRANCH  10  12
ENDBRANCH   6   7
ENDBRANCH   4   6
BRANCH   1  22
HETATM   22  S   UNL     1      -6.035  -5.447  -0.099  1.00  0.00    -0.082 SA
BRANCH  22  23
HETATM   23  C   UNL     1      -6.103  -7.088  -0.901  1.00  0.00     0.092 C 
BRANCH  23  24
HETATM   24  C   UNL     1      -4.726  -7.734  -0.980  1.00  0.00     0.114 C 
BRANCH  24  25
HETATM   25  C   UNL     1      -4.791  -8.987  -1.848  1.00  0.00     0.222 C 
HETATM   26  N   UNL     1      -5.081 -10.149  -1.152  1.00  0.00    -0.327 N 
HETATM   27  H   UNL     1      -4.986 -10.089  -0.145  1.00  0.00     0.169 HD
HETATM   28  O   UNL     1      -4.578  -8.872  -3.047  1.00  0.00    -0.273 OA
BRANCH  26  29
HETATM   29  C   UNL     1      -5.270 -11.475  -1.643  1.00  0.00     0.041 A 
HETATM   30  C   UNL     1      -5.620 -11.860  -2.952  1.00  0.00    -0.035 A 
HETATM   31  C   UNL     1      -5.750 -13.236  -3.249  1.00  0.00     0.009 A 
HETATM   32  C   UNL     1      -5.912 -10.938  -4.098  1.00  0.00     0.050 C 
HETATM   33  C   UNL     1      -5.566 -14.225  -2.289  1.00  0.00     0.007 A 
HETATM   34  C   UNL     1      -5.243 -13.866  -0.987  1.00  0.00    -0.060 A 
HETATM   35  C   UNL     1      -5.026 -14.932   0.048  1.00  0.00     0.048 C 
HETATM   36  C   UNL     1      -5.107 -12.499  -0.676  1.00  0.00     0.037 A 
ENDBRANCH  26  29
ENDBRANCH  24  25
ENDBRANCH  23  24
ENDBRANCH  22  23
ENDBRANCH   1  22
TORSDOF 9
