REMARK  10 active torsions:
REMARK  status: ('A' for Active; 'I' for Inactive)
REMARK    1  A    between atoms: C_2  and  C_3 
REMARK    2  A    between atoms: C_8  and  N_9 
REMARK       I    between atoms: N_9  and  C_10 
REMARK    3  A    between atoms: C_10  and  C_12 
REMARK    4  A    between atoms: C_12  and  C_13 
REMARK    5  A    between atoms: C_13  and  S_14 
REMARK    6  A    between atoms: S_14  and  C_15 
REMARK    7  A    between atoms: C_18  and  C_19 
REMARK    8  A    between atoms: C_19  and  C_20 
REMARK    9  A    between atoms: C_23  and  N_24 
REMARK       I    between atoms: N_24  and  C_25 
REMARK   10  A    between atoms: C_25  and  C_27 
ROOT
HETATM    1  C   UNL     1       2.674  -1.301  -6.828  1.00  0.00     0.231 A 
HETATM    2  N   UNL     1       3.402  -1.378  -7.924  1.00  0.00    -0.114 NA
HETATM    3  N   UNL     1       3.237  -0.187  -8.603  1.00  0.00    -0.126 NA
HETATM    4  C   UNL     1       2.416   0.543  -7.876  1.00  0.00     0.175 A 
HETATM    5  O   UNL     1       2.015  -0.098  -6.730  1.00  0.00    -0.268 OA
ENDROOT
BRANCH   4   6
HETATM    6  C   UNL     1       1.931   1.929  -8.115  1.00  0.00     0.148 C 
BRANCH   6   7
HETATM    7  C   UNL     1       0.607   1.984  -8.816  1.00  0.00     0.051 A 
HETATM    8  C   UNL     1       0.267   1.458 -10.050  1.00  0.00     0.081 A 
HETATM    9  S   UNL     1      -1.394   1.773 -10.388  1.00  0.00    -0.062 SA
HETATM   10  C   UNL     1      -1.496   2.663  -8.939  1.00  0.00     0.173 A 
HETATM   11  N   UNL     1      -0.419   2.686  -8.203  1.00  0.00    -0.228 NA
BRANCH  10  12
HETATM   12  N   UNL     1      -2.707   3.255  -8.690  1.00  0.00    -0.301 N 
HETATM   13  C   UNL     1      -2.818   4.215  -7.705  1.00  0.00     0.257 C 
HETATM   14  O   UNL     1      -1.890   4.706  -7.067  1.00  0.00    -0.267 OA
HETATM   15  H   UNL     1      -3.467   3.052  -9.322  1.00  0.00     0.171 HD
BRANCH  13  16
HETATM   16  C   UNL     1      -4.183   4.738  -7.428  1.00  0.00     0.032 A 
HETATM   17  C   UNL     1      -5.339   3.962  -7.562  1.00  0.00     0.017 A 
HETATM   18  C   UNL     1      -6.578   4.489  -7.175  1.00  0.00     0.001 A 
HETATM   19  C   UNL     1      -6.664   5.782  -6.654  1.00  0.00     0.000 A 
HETATM   20  C   UNL     1      -5.517   6.562  -6.530  1.00  0.00     0.001 A 
HETATM   21  C   UNL     1      -4.282   6.042  -6.915  1.00  0.00     0.017 A 
ENDBRANCH  13  16
ENDBRANCH  10  12
ENDBRANCH   6   7
ENDBRANCH   4   6
BRANCH   1  22
HETATM   22  S   UNL     1       2.528  -2.575  -5.637  1.00  0.00    -0.082 SA
BRANCH  22  23
HETATM   23  C   UNL     1       4.029  -3.550  -5.992  1.00  0.00     0.092 C 
BRANCH  23  24
HETATM   24  C   UNL     1       4.117  -4.842  -5.161  1.00  0.00     0.114 C 
BRANCH  24  25
HETATM   25  C   UNL     1       5.410  -5.580  -5.504  1.00  0.00     0.222 C 
HETATM   26  N   UNL     1       5.573  -6.811  -4.886  1.00  0.00    -0.327 N 
HETATM   27  H   UNL     1       4.792  -7.180  -4.365  1.00  0.00     0.169 HD
HETATM   28  O   UNL     1       6.219  -5.079  -6.290  1.00  0.00    -0.273 OA
BRANCH  26  29
HETATM   29  C   UNL     1       6.742  -7.640  -5.001  1.00  0.00     0.041 A 
HETATM   30  C   UNL     1       6.705  -8.995  -4.581  1.00  0.00    -0.032 A 
HETATM   31  C   UNL     1       7.877  -9.784  -4.674  1.00  0.00     0.009 A 
HETATM   32  C   UNL     1       9.055  -9.276  -5.209  1.00  0.00     0.001 A 
HETATM   33  C   UNL     1       9.087  -7.963  -5.650  1.00  0.00     0.002 A 
HETATM   34  C   UNL     1       7.951  -7.151  -5.529  1.00  0.00     0.030 A 
BRANCH  30  35
HETATM   35  C   UNL     1       5.440  -9.725  -4.189  1.00  0.00     0.036 C 
HETATM   36  C   UNL     1       4.719 -10.225  -5.434  1.00  0.00     0.010 C 
ENDBRANCH  30  35
ENDBRANCH  26  29
ENDBRANCH  24  25
ENDBRANCH  23  24
ENDBRANCH  22  23
ENDBRANCH   1  22
TORSDOF 10
