REMARK  9 active torsions:
REMARK  status: ('A' for Active; 'I' for Inactive)
REMARK    1  A    between atoms: C_5  and  N_6 
REMARK       I    between atoms: N_6  and  C_7 
REMARK    2  A    between atoms: C_7  and  C_9 
REMARK    3  A    between atoms: C_9  and  C_10 
REMARK    4  A    between atoms: C_10  and  S_11 
REMARK    5  A    between atoms: S_11  and  C_12 
REMARK    6  A    between atoms: C_15  and  C_16 
REMARK    7  A    between atoms: C_16  and  C_17 
REMARK    8  A    between atoms: C_20  and  N_21 
REMARK       I    between atoms: N_21  and  C_22 
REMARK    9  A    between atoms: C_22  and  C_24 
ROOT
HETATM    1  C   UNL     1      -9.736  -0.482  -0.212  1.00  0.00     0.231 A 
HETATM    2  N   UNL     1     -11.001  -0.851  -0.196  1.00  0.00    -0.114 NA
HETATM    3  N   UNL     1     -11.758   0.301  -0.186  1.00  0.00    -0.126 NA
HETATM    4  C   UNL     1     -10.905   1.304  -0.194  1.00  0.00     0.175 A 
HETATM    5  O   UNL     1      -9.597   0.884  -0.206  1.00  0.00    -0.268 OA
ENDROOT
BRANCH   4   6
HETATM    6  C   UNL     1     -11.180   2.761  -0.248  1.00  0.00     0.148 C 
BRANCH   6   7
HETATM    7  C   UNL     1     -11.297   3.389   1.106  1.00  0.00     0.051 A 
HETATM    8  C   UNL     1     -12.189   3.083   2.120  1.00  0.00     0.081 A 
HETATM    9  S   UNL     1     -11.877   4.073   3.495  1.00  0.00    -0.062 SA
HETATM   10  C   UNL     1     -10.671   4.888   2.608  1.00  0.00     0.173 A 
HETATM   11  N   UNL     1     -10.449   4.442   1.400  1.00  0.00    -0.228 NA
BRANCH  10  12
HETATM   12  N   UNL     1     -10.049   5.920   3.259  1.00  0.00    -0.301 N 
HETATM   13  C   UNL     1      -9.267   6.811   2.555  1.00  0.00     0.257 C 
HETATM   14  O   UNL     1      -9.142   6.860   1.335  1.00  0.00    -0.267 OA
HETATM   15  H   UNL     1     -10.277   6.062   4.230  1.00  0.00     0.171 HD
BRANCH  13  16
HETATM   16  C   UNL     1      -8.555   7.847   3.354  1.00  0.00     0.032 A 
HETATM   17  C   UNL     1      -8.087   7.615   4.652  1.00  0.00     0.017 A 
HETATM   18  C   UNL     1      -7.338   8.601   5.305  1.00  0.00     0.001 A 
HETATM   19  C   UNL     1      -7.058   9.812   4.668  1.00  0.00     0.000 A 
HETATM   20  C   UNL     1      -7.529  10.049   3.380  1.00  0.00     0.001 A 
HETATM   21  C   UNL     1      -8.274   9.069   2.725  1.00  0.00     0.017 A 
ENDBRANCH  13  16
ENDBRANCH  10  12
ENDBRANCH   6   7
ENDBRANCH   4   6
BRANCH   1  22
HETATM   22  S   UNL     1      -8.378  -1.585  -0.241  1.00  0.00    -0.082 SA
BRANCH  22  23
HETATM   23  C   UNL     1      -9.137  -3.017  -1.078  1.00  0.00     0.092 C 
BRANCH  23  24
HETATM   24  C   UNL     1      -8.188  -4.219  -1.221  1.00  0.00     0.114 C 
BRANCH  24  25
HETATM   25  C   UNL     1      -8.901  -5.332  -1.985  1.00  0.00     0.222 C 
HETATM   26  N   UNL     1      -8.152  -6.489  -2.173  1.00  0.00    -0.327 N 
HETATM   27  H   UNL     1      -7.210  -6.510  -1.804  1.00  0.00     0.169 HD
HETATM   28  O   UNL     1     -10.050  -5.166  -2.383  1.00  0.00    -0.273 OA
BRANCH  26  29
HETATM   29  C   UNL     1      -8.599  -7.660  -2.841  1.00  0.00     0.035 A 
HETATM   30  C   UNL     1      -9.874  -7.775  -3.397  1.00  0.00     0.030 A 
HETATM   31  C   UNL     1     -10.286  -8.946  -4.033  1.00  0.00     0.009 A 
HETATM   32  C   UNL     1      -9.431 -10.044  -4.142  1.00  0.00    -0.056 A 
HETATM   33  C   UNL     1      -9.929 -11.288  -4.825  1.00  0.00     0.049 C 
HETATM   34  C   UNL     1      -8.131  -9.948  -3.606  1.00  0.00    -0.054 A 
HETATM   35  C   UNL     1      -7.731  -8.754  -2.955  1.00  0.00     0.037 A 
HETATM   36  C   UNL     1      -7.173 -11.102  -3.726  1.00  0.00     0.049 C 
ENDBRANCH  26  29
ENDBRANCH  24  25
ENDBRANCH  23  24
ENDBRANCH  22  23
ENDBRANCH   1  22
TORSDOF 9
