REMARK  9 active torsions:
REMARK  status: ('A' for Active; 'I' for Inactive)
REMARK    1  A    between atoms: C_7  and  N_8 
REMARK       I    between atoms: N_8  and  C_9 
REMARK    2  A    between atoms: C_9  and  C_11 
REMARK    3  A    between atoms: C_11  and  C_12 
REMARK    4  A    between atoms: C_12  and  S_13 
REMARK    5  A    between atoms: S_13  and  C_14 
REMARK    6  A    between atoms: C_17  and  C_18 
REMARK    7  A    between atoms: C_18  and  C_19 
REMARK    8  A    between atoms: C_22  and  N_23 
REMARK       I    between atoms: N_23  and  C_24 
REMARK    9  A    between atoms: C_24  and  C_26 
ROOT
HETATM    1  C   UNL     1       4.200  -8.430  -0.006  1.00  0.00     0.231 A 
HETATM    2  N   UNL     1       5.232  -7.603   0.002  1.00  0.00    -0.114 NA
HETATM    3  N   UNL     1       6.375  -8.384   0.007  1.00  0.00    -0.126 NA
HETATM    4  C   UNL     1       5.969  -9.637   0.001  1.00  0.00     0.175 A 
HETATM    5  O   UNL     1       4.601  -9.743  -0.004  1.00  0.00    -0.268 OA
ENDROOT
BRANCH   4   6
HETATM    6  C   UNL     1       6.765 -10.892  -0.062  1.00  0.00     0.148 C 
BRANCH   6   7
HETATM    7  C   UNL     1       7.084 -11.465   1.286  1.00  0.00     0.051 A 
HETATM    8  C   UNL     1       7.819 -10.893   2.311  1.00  0.00     0.081 A 
HETATM    9  S   UNL     1       7.827 -11.937   3.682  1.00  0.00    -0.062 SA
HETATM   10  C   UNL     1       6.958 -13.093   2.781  1.00  0.00     0.173 A 
HETATM   11  N   UNL     1       6.636 -12.746   1.563  1.00  0.00    -0.228 NA
BRANCH  10  12
HETATM   12  N   UNL     1       6.676 -14.265   3.433  1.00  0.00    -0.301 N 
HETATM   13  C   UNL     1       6.275 -15.374   2.717  1.00  0.00     0.257 C 
HETATM   14  O   UNL     1       6.223 -15.465   1.494  1.00  0.00    -0.267 OA
HETATM   15  H   UNL     1       6.887 -14.311   4.417  1.00  0.00     0.171 HD
BRANCH  13  16
HETATM   16  C   UNL     1       5.931 -16.592   3.502  1.00  0.00     0.032 A 
HETATM   17  C   UNL     1       5.393 -16.541   4.793  1.00  0.00     0.017 A 
HETATM   18  C   UNL     1       4.995 -17.723   5.427  1.00  0.00     0.001 A 
HETATM   19  C   UNL     1       5.132 -18.952   4.779  1.00  0.00     0.000 A 
HETATM   20  C   UNL     1       5.677 -19.010   3.499  1.00  0.00     0.001 A 
HETATM   21  C   UNL     1       6.076 -17.835   2.864  1.00  0.00     0.017 A 
ENDBRANCH  13  16
ENDBRANCH  10  12
ENDBRANCH   6   7
ENDBRANCH   4   6
BRANCH   1  22
HETATM   22  S   UNL     1       2.519  -7.963   0.014  1.00  0.00    -0.082 SA
BRANCH  22  23
HETATM   23  C   UNL     1       2.574  -6.354  -0.824  1.00  0.00     0.092 C 
BRANCH  23  24
HETATM   24  C   UNL     1       1.176  -5.719  -0.960  1.00  0.00     0.114 C 
BRANCH  24  25
HETATM   25  C   UNL     1       1.301  -4.385  -1.686  1.00  0.00     0.222 C 
HETATM   26  N   UNL     1       0.114  -3.694  -1.871  1.00  0.00    -0.327 N 
HETATM   27  H   UNL     1      -0.741  -4.113  -1.524  1.00  0.00     0.169 HD
HETATM   28  O   UNL     1       2.407  -4.004  -2.063  1.00  0.00    -0.273 OA
BRANCH  26  29
HETATM   29  C   UNL     1      -0.009  -2.426  -2.513  1.00  0.00     0.035 A 
HETATM   30  C   UNL     1       1.085  -1.726  -3.035  1.00  0.00     0.036 A 
HETATM   31  C   UNL     1       0.946  -0.481  -3.661  1.00  0.00    -0.059 A 
HETATM   32  C   UNL     1      -0.325   0.086  -3.768  1.00  0.00     0.013 A 
HETATM   33  C   UNL     1       2.163   0.208  -4.201  1.00  0.00     0.048 C 
HETATM   34  C   UNL     1      -1.442  -0.585  -3.255  1.00  0.00    -0.059 A 
HETATM   35  C   UNL     1      -2.808   0.031  -3.374  1.00  0.00     0.048 C 
HETATM   36  C   UNL     1      -1.276  -1.840  -2.632  1.00  0.00     0.036 A 
ENDBRANCH  26  29
ENDBRANCH  24  25
ENDBRANCH  23  24
ENDBRANCH  22  23
ENDBRANCH   1  22
TORSDOF 9
