REMARK  4 active torsions:
REMARK  status: ('A' for Active; 'I' for Inactive)
REMARK    1  A    between atoms: C_4  and  C_5 
REMARK    2  A    between atoms: C_5  and  N_6 
REMARK    3  A    between atoms: N_10  and  N_11 
REMARK       I    between atoms: N_11  and  C_12 
REMARK    4  A    between atoms: C_12  and  C_14 
ROOT
HETATM    1  N   UNL     1       5.265   2.492  -1.043  1.00  0.00    -0.308 N 
HETATM    2  C   UNL     1       4.808   3.727  -0.613  1.00  0.00     0.280 A 
HETATM    3  O   UNL     1       4.038   3.986   0.287  1.00  0.00    -0.265 OA
HETATM    4  C   UNL     1       5.526   4.763  -1.502  1.00  0.00     0.157 A 
HETATM    5  N   UNL     1       5.355   6.033  -1.302  1.00  0.00    -0.166 NA
HETATM    6  C   UNL     1       6.344   3.983  -2.447  1.00  0.00     0.027 A 
HETATM    7  C   UNL     1       7.149   4.349  -3.514  1.00  0.00     0.016 A 
HETATM    8  C   UNL     1       7.854   3.346  -4.186  1.00  0.00     0.001 A 
HETATM    9  C   UNL     1       7.723   2.003  -3.809  1.00  0.00     0.002 A 
HETATM   10  C   UNL     1       6.863   1.635  -2.771  1.00  0.00     0.031 A 
HETATM   11  C   UNL     1       6.176   2.636  -2.101  1.00  0.00     0.050 A 
ENDROOT
BRANCH   5  12
HETATM   12  N   UNL     1       6.070   6.947  -2.012  1.00  0.00    -0.242 N 
HETATM   13  C   UNL     1       5.832   8.302  -1.835  1.00  0.00     0.271 C 
HETATM   14  O   UNL     1       5.031   8.803  -1.056  1.00  0.00    -0.266 OA
HETATM   15  H   UNL     1       6.938   6.661  -2.435  1.00  0.00     0.192 HD
BRANCH  13  16
HETATM   16  C   UNL     1       6.672   9.199  -2.686  1.00  0.00     0.033 A 
HETATM   17  C   UNL     1       7.079   8.818  -3.975  1.00  0.00     0.020 A 
HETATM   18  C   UNL     1       7.832   9.696  -4.758  1.00  0.00     0.043 A 
HETATM   19  C   UNL     1       8.165  10.951  -4.258  1.00  0.00     0.116 A 
HETATM   20  F   UNL     1       8.875  11.793  -5.018  1.00  0.00    -0.206 F 
HETATM   21  C   UNL     1       7.759  11.346  -2.988  1.00  0.00     0.043 A 
HETATM   22  C   UNL     1       7.007  10.471  -2.201  1.00  0.00     0.020 A 
ENDBRANCH  13  16
ENDBRANCH   5  12
BRANCH   1  23
HETATM   23  C   UNL     1       4.842   1.245  -0.454  1.00  0.00     0.160 C 
BRANCH  23  24
HETATM   24  C   UNL     1       3.557   0.792  -1.094  1.00  0.00    -0.005 C 
HETATM   25  C   UNL     1       2.396   0.535  -0.456  1.00  0.00    -0.090 C 
HETATM   26  C   UNL     1       1.182   0.095  -1.229  1.00  0.00     0.042 C 
HETATM   27  C   UNL     1       2.236   0.680   1.033  1.00  0.00     0.042 C 
ENDBRANCH  23  24
ENDBRANCH   1  23
TORSDOF 4
