REMARK  6 active torsions:
REMARK  status: ('A' for Active; 'I' for Inactive)
REMARK    1  A    between atoms: O_1  and  C_2 
REMARK    2  A    between atoms: C_5  and  C_6 
REMARK    3  A    between atoms: C_6  and  C_7 
REMARK    4  A    between atoms: C_7  and  C_8 
REMARK    5  A    between atoms: C_15  and  O_16 
REMARK    6  A    between atoms: C_17  and  O_18 
ROOT
HETATM    1  C   UNL     1       1.012   0.529   0.272  1.00  0.00     0.101 A 
HETATM    2  C   UNL     1       0.038   0.510   1.262  1.00  0.00     0.040 A 
HETATM    3  C   UNL     1      -1.054  -0.359   1.146  1.00  0.00     0.013 A 
HETATM    4  C   UNL     1      -1.210  -1.218   0.036  1.00  0.00    -0.022 A 
HETATM    5  C   UNL     1      -0.206  -1.188  -0.945  1.00  0.00     0.107 A 
HETATM    6  C   UNL     1       0.888  -0.318  -0.824  1.00  0.00     0.133 A 
ENDROOT
BRANCH   4   7
HETATM    7  C   UNL     1      -2.427  -2.126   0.009  1.00  0.00     0.046 C 
BRANCH   7   8
HETATM    8  C   UNL     1      -3.761  -1.353   0.021  1.00  0.00     0.043 C 
BRANCH   8   9
HETATM    9  C   UNL     1      -5.045  -2.159   0.052  1.00  0.00    -0.057 A 
HETATM   10  C   UNL     1      -5.097  -3.559   0.086  1.00  0.00     0.007 A 
HETATM   11  C   UNL     1      -6.326  -4.229   0.104  1.00  0.00     0.002 A 
HETATM   12  C   UNL     1      -7.522  -3.512   0.094  1.00  0.00     0.019 A 
HETATM   13  C   UNL     1      -7.484  -2.122   0.073  1.00  0.00     0.011 A 
HETATM   14 BR   UNL     1      -9.098  -1.138   0.064  1.00  0.00    -0.051 Br
HETATM   15  C   UNL     1      -6.261  -1.449   0.054  1.00  0.00     0.026 A 
ENDBRANCH   8   9
ENDBRANCH   7   8
ENDBRANCH   4   7
BRANCH   5  16
HETATM   16  O   UNL     1      -0.197  -1.974  -2.068  1.00  0.00    -0.357 OA
HETATM   17  H   UNL     1      -0.879  -2.658  -1.999  1.00  0.00     0.217 HD
ENDBRANCH   5  16
BRANCH   6  18
HETATM   18  O   UNL     1       1.850  -0.323  -1.802  1.00  0.00    -0.356 OA
HETATM   19  H   UNL     1       1.541  -0.989  -2.444  1.00  0.00     0.218 HD
ENDBRANCH   6  18
BRANCH   1  20
HETATM   20  O   UNL     1       2.087   1.362   0.370  1.00  0.00    -0.358 OA
HETATM   21  H   UNL     1       2.016   1.882   1.185  1.00  0.00     0.217 HD
ENDBRANCH   1  20
TORSDOF 6
