REMARK  4 active torsions:
REMARK  status: ('A' for Active; 'I' for Inactive)
REMARK    1  A    between atoms: C_4  and  C_5 
REMARK    2  A    between atoms: C_5  and  N_6 
REMARK    3  A    between atoms: N_10  and  N_11 
REMARK       I    between atoms: N_11  and  C_12 
REMARK    4  A    between atoms: C_12  and  C_14 
ROOT
HETATM    1  N   UNL     1       5.120   1.777   1.863  1.00  0.00    -0.308 N 
HETATM    2  C   UNL     1       4.925   3.144   1.776  1.00  0.00     0.280 A 
HETATM    3  O   UNL     1       4.462   3.797   0.867  1.00  0.00    -0.265 OA
HETATM    4  C   UNL     1       5.442   3.713   3.112  1.00  0.00     0.157 A 
HETATM    5  N   UNL     1       5.265   4.964   3.413  1.00  0.00    -0.166 NA
HETATM    6  C   UNL     1       6.038   2.574   3.829  1.00  0.00     0.027 A 
HETATM    7  C   UNL     1       6.771   2.483   5.003  1.00  0.00     0.016 A 
HETATM    8  C   UNL     1       7.176   1.218   5.435  1.00  0.00     0.001 A 
HETATM    9  C   UNL     1       6.873   0.073   4.683  1.00  0.00     0.002 A 
HETATM   10  C   UNL     1       6.177   0.177   3.476  1.00  0.00     0.031 A 
HETATM   11  C   UNL     1       5.774   1.436   3.057  1.00  0.00     0.050 A 
ENDROOT
BRANCH   5  12
HETATM   12  N   UNL     1       5.608   5.418   4.648  1.00  0.00    -0.242 N 
HETATM   13  C   UNL     1       5.437   6.754   4.982  1.00  0.00     0.271 C 
HETATM   14  O   UNL     1       4.959   7.626   4.268  1.00  0.00    -0.266 OA
HETATM   15  H   UNL     1       5.713   4.752   5.394  1.00  0.00     0.192 HD
BRANCH  13  16
HETATM   16  C   UNL     1       5.879   7.105   6.365  1.00  0.00     0.033 A 
HETATM   17  C   UNL     1       6.943   6.433   6.987  1.00  0.00     0.019 A 
HETATM   18  C   UNL     1       7.356   6.805   8.269  1.00  0.00     0.025 A 
HETATM   19  C   UNL     1       6.719   7.857   8.926  1.00  0.00     0.034 A 
HETATM   20 CL   UNL     1       7.252   8.329  10.491  1.00  0.00    -0.084 Cl
HETATM   21  C   UNL     1       5.668   8.537   8.313  1.00  0.00     0.025 A 
HETATM   22  C   UNL     1       5.249   8.164   7.032  1.00  0.00     0.019 A 
ENDBRANCH  13  16
ENDBRANCH   5  12
BRANCH   1  23
HETATM   23  C   UNL     1       4.747   0.856   0.816  1.00  0.00     0.160 C 
BRANCH  23  24
HETATM   24  C   UNL     1       3.325   0.419   1.031  1.00  0.00    -0.005 C 
HETATM   25  C   UNL     1       2.304   0.582   0.163  1.00  0.00    -0.090 C 
HETATM   26  C   UNL     1       0.917   0.126   0.527  1.00  0.00     0.042 C 
HETATM   27  C   UNL     1       2.478   1.235  -1.180  1.00  0.00     0.042 C 
ENDBRANCH  23  24
ENDBRANCH   1  23
TORSDOF 4
