REMARK  4 active torsions:
REMARK  status: ('A' for Active; 'I' for Inactive)
REMARK    1  A    between atoms: C_4  and  C_5 
REMARK    2  A    between atoms: C_5  and  N_6 
REMARK    3  A    between atoms: N_10  and  N_11 
REMARK       I    between atoms: N_11  and  C_12 
REMARK    4  A    between atoms: C_12  and  C_14 
ROOT
HETATM    1  N   UNL     1       5.167  -0.034  -2.693  1.00  0.00    -0.308 N 
HETATM    2  C   UNL     1       5.399   1.071  -3.495  1.00  0.00     0.280 A 
HETATM    3  O   UNL     1       5.291   2.247  -3.223  1.00  0.00    -0.265 OA
HETATM    4  C   UNL     1       5.883   0.506  -4.843  1.00  0.00     0.157 A 
HETATM    5  N   UNL     1       6.216   1.289  -5.822  1.00  0.00    -0.166 NA
HETATM    6  C   UNL     1       5.843  -0.958  -4.700  1.00  0.00     0.027 A 
HETATM    7  C   UNL     1       6.090  -1.982  -5.596  1.00  0.00     0.016 A 
HETATM    8  C   UNL     1       5.985  -3.298  -5.142  1.00  0.00     0.001 A 
HETATM    9  C   UNL     1       5.612  -3.567  -3.816  1.00  0.00     0.002 A 
HETATM   10  C   UNL     1       5.315  -2.524  -2.932  1.00  0.00     0.031 A 
HETATM   11  C   UNL     1       5.430  -1.223  -3.389  1.00  0.00     0.050 A 
ENDROOT
BRANCH   5  12
HETATM   12  N   UNL     1       6.770   0.747  -6.942  1.00  0.00    -0.242 N 
HETATM   13  C   UNL     1       6.737   1.447  -8.142  1.00  0.00     0.271 C 
HETATM   14  O   UNL     1       6.198   2.531  -8.321  1.00  0.00    -0.266 OA
HETATM   15  H   UNL     1       7.460   0.019  -6.809  1.00  0.00     0.192 HD
BRANCH  13  16
HETATM   16  C   UNL     1       7.409   0.772  -9.294  1.00  0.00     0.035 A 
HETATM   17  C   UNL     1       7.533  -0.622  -9.368  1.00  0.00     0.017 A 
HETATM   18  C   UNL     1       8.130  -1.225 -10.476  1.00  0.00     0.002 A 
HETATM   19  C   UNL     1       8.597  -0.438 -11.526  1.00  0.00     0.019 A 
HETATM   20  C   UNL     1       8.459   0.950 -11.465  1.00  0.00     0.011 A 
HETATM   21 BR   UNL     1       9.073   2.007 -12.906  1.00  0.00    -0.051 Br
HETATM   22  C   UNL     1       7.866   1.559 -10.360  1.00  0.00     0.036 A 
ENDBRANCH  13  16
ENDBRANCH   5  12
BRANCH   1  23
HETATM   23  C   UNL     1       4.737   0.059  -1.319  1.00  0.00     0.160 C 
BRANCH  23  24
HETATM   24  C   UNL     1       3.236   0.035  -1.231  1.00  0.00    -0.005 C 
HETATM   25  C   UNL     1       2.514  -0.491  -0.219  1.00  0.00    -0.090 C 
HETATM   26  C   UNL     1       1.013  -0.383  -0.218  1.00  0.00     0.042 C 
HETATM   27  C   UNL     1       3.151  -1.140   0.978  1.00  0.00     0.042 C 
ENDBRANCH  23  24
ENDBRANCH   1  23
TORSDOF 4
