REMARK  4 active torsions:
REMARK  status: ('A' for Active; 'I' for Inactive)
REMARK    1  A    between atoms: C_4  and  C_5 
REMARK    2  A    between atoms: C_5  and  N_6 
REMARK    3  A    between atoms: N_10  and  N_11 
REMARK       I    between atoms: N_11  and  C_12 
REMARK    4  A    between atoms: C_12  and  C_14 
ROOT
HETATM    1  N   UNL     1       5.132  -1.357   2.320  1.00  0.00    -0.308 N 
HETATM    2  C   UNL     1       5.702  -0.767   3.440  1.00  0.00     0.280 A 
HETATM    3  O   UNL     1       5.995   0.391   3.629  1.00  0.00    -0.265 OA
HETATM    4  C   UNL     1       5.870  -1.921   4.463  1.00  0.00     0.157 A 
HETATM    5  N   UNL     1       6.212  -1.692   5.694  1.00  0.00    -0.166 NA
HETATM    6  C   UNL     1       5.427  -3.136   3.761  1.00  0.00     0.027 A 
HETATM    7  C   UNL     1       5.354  -4.462   4.157  1.00  0.00     0.016 A 
HETATM    8  C   UNL     1       4.761  -5.379   3.288  1.00  0.00     0.001 A 
HETATM    9  C   UNL     1       4.269  -4.971   2.042  1.00  0.00     0.002 A 
HETATM   10  C   UNL     1       4.383  -3.641   1.635  1.00  0.00     0.031 A 
HETATM   11  C   UNL     1       4.961  -2.732   2.508  1.00  0.00     0.050 A 
ENDROOT
BRANCH   5  12
HETATM   12  N   UNL     1       6.306  -2.736   6.573  1.00  0.00    -0.242 N 
HETATM   13  C   UNL     1       6.141  -2.515   7.937  1.00  0.00     0.271 C 
HETATM   14  O   UNL     1       5.855  -1.438   8.452  1.00  0.00    -0.266 OA
HETATM   15  H   UNL     1       6.801  -3.562   6.266  1.00  0.00     0.192 HD
BRANCH  13  16
HETATM   16  C   UNL     1       6.323  -3.711   8.820  1.00  0.00     0.034 A 
HETATM   17  C   UNL     1       6.763  -3.501  10.134  1.00  0.00     0.024 A 
HETATM   18  C   UNL     1       6.930  -4.576  11.017  1.00  0.00    -0.061 A 
HETATM   19  C   UNL     1       7.434  -4.348  12.412  1.00  0.00     0.048 C 
HETATM   20  C   UNL     1       6.619  -5.871  10.585  1.00  0.00     0.013 A 
HETATM   21  C   UNL     1       6.151  -6.100   9.285  1.00  0.00    -0.061 A 
HETATM   22  C   UNL     1       5.790  -7.492   8.851  1.00  0.00     0.048 C 
HETATM   23  C   UNL     1       6.007  -5.014   8.404  1.00  0.00     0.024 A 
ENDBRANCH  13  16
ENDBRANCH   5  12
BRANCH   1  24
HETATM   24  C   UNL     1       4.701  -0.631   1.149  1.00  0.00     0.160 C 
BRANCH  24  25
HETATM   25  C   UNL     1       5.826  -0.544   0.156  1.00  0.00    -0.005 C 
HETATM   26  C   UNL     1       6.344   0.605  -0.325  1.00  0.00    -0.090 C 
HETATM   27  C   UNL     1       7.479   0.589  -1.309  1.00  0.00     0.042 C 
HETATM   28  C   UNL     1       5.820   1.948   0.106  1.00  0.00     0.042 C 
ENDBRANCH  24  25
ENDBRANCH   1  24
TORSDOF 4
