REMARK  4 active torsions:
REMARK  status: ('A' for Active; 'I' for Inactive)
REMARK    1  A    between atoms: C_4  and  C_5 
REMARK    2  A    between atoms: C_5  and  N_6 
REMARK    3  A    between atoms: N_10  and  N_11 
REMARK       I    between atoms: N_11  and  C_12 
REMARK    4  A    between atoms: C_12  and  C_14 
ROOT
HETATM    1  N   UNL     1       5.102  -2.151  -1.606  1.00  0.00    -0.308 N 
HETATM    2  C   UNL     1       5.688  -2.080  -2.859  1.00  0.00     0.280 A 
HETATM    3  O   UNL     1       6.022  -1.104  -3.496  1.00  0.00    -0.265 OA
HETATM    4  C   UNL     1       5.826  -3.542  -3.328  1.00  0.00     0.157 A 
HETATM    5  N   UNL     1       6.388  -3.842  -4.458  1.00  0.00    -0.166 NA
HETATM    6  C   UNL     1       5.199  -4.357  -2.273  1.00  0.00     0.027 A 
HETATM    7  C   UNL     1       4.888  -5.704  -2.193  1.00  0.00     0.016 A 
HETATM    8  C   UNL     1       4.283  -6.182  -1.027  1.00  0.00     0.001 A 
HETATM    9  C   UNL     1       3.971  -5.309   0.023  1.00  0.00     0.002 A 
HETATM   10  C   UNL     1       4.228  -3.942  -0.092  1.00  0.00     0.031 A 
HETATM   11  C   UNL     1       4.827  -3.480  -1.254  1.00  0.00     0.050 A 
ENDROOT
BRANCH   5  12
HETATM   12  N   UNL     1       6.594  -5.154  -4.758  1.00  0.00    -0.242 N 
HETATM   13  C   UNL     1       6.745  -5.572  -6.074  1.00  0.00     0.271 C 
HETATM   14  O   UNL     1       6.702  -4.858  -7.066  1.00  0.00    -0.266 OA
HETATM   15  H   UNL     1       6.898  -5.759  -4.003  1.00  0.00     0.192 HD
BRANCH  13  16
HETATM   16  C   UNL     1       6.950  -7.047  -6.234  1.00  0.00     0.033 A 
HETATM   17  C   UNL     1       6.442  -7.960  -5.300  1.00  0.00     0.017 A 
HETATM   18  C   UNL     1       6.625  -9.332  -5.470  1.00  0.00     0.001 A 
HETATM   19  C   UNL     1       7.303  -9.801  -6.588  1.00  0.00     0.000 A 
HETATM   20  C   UNL     1       7.793  -8.903  -7.537  1.00  0.00     0.001 A 
HETATM   21  C   UNL     1       7.615  -7.527  -7.365  1.00  0.00     0.017 A 
ENDBRANCH  13  16
ENDBRANCH   5  12
BRANCH   1  22
HETATM   22  C   UNL     1       4.690  -0.997  -0.849  1.00  0.00     0.160 C 
BRANCH  22  23
HETATM   23  C   UNL     1       5.812  -0.563   0.050  1.00  0.00    -0.005 C 
HETATM   24  C   UNL     1       6.392   0.651   0.051  1.00  0.00    -0.090 C 
HETATM   25  C   UNL     1       7.533   0.948   0.985  1.00  0.00     0.042 C 
HETATM   26  C   UNL     1       5.953   1.757  -0.868  1.00  0.00     0.042 C 
ENDBRANCH  22  23
ENDBRANCH   1  22
TORSDOF 4
