REMARK  5 active torsions:
REMARK  status: ('A' for Active; 'I' for Inactive)
REMARK    1  A    between atoms: C_4  and  C_5 
REMARK    2  A    between atoms: C_5  and  N_6 
REMARK    3  A    between atoms: N_10  and  N_11 
REMARK       I    between atoms: N_11  and  C_12 
REMARK    4  A    between atoms: C_12  and  C_14 
REMARK    5  A    between atoms: C_17  and  C_18 
ROOT
HETATM    1  N   UNL     1       5.141   0.265  -2.657  1.00  0.00    -0.308 N 
HETATM    2  C   UNL     1       5.275   1.451  -3.362  1.00  0.00     0.280 A 
HETATM    3  O   UNL     1       5.065   2.584  -2.993  1.00  0.00    -0.265 OA
HETATM    4  C   UNL     1       5.802   1.044  -4.751  1.00  0.00     0.157 A 
HETATM    5  N   UNL     1       6.067   1.935  -5.656  1.00  0.00    -0.166 NA
HETATM    6  C   UNL     1       5.888  -0.423  -4.732  1.00  0.00     0.027 A 
HETATM    7  C   UNL     1       6.219  -1.345  -5.710  1.00  0.00     0.016 A 
HETATM    8  C   UNL     1       6.235  -2.698  -5.366  1.00  0.00     0.001 A 
HETATM    9  C   UNL     1       5.895  -3.107  -4.068  1.00  0.00     0.002 A 
HETATM   10  C   UNL     1       5.509  -2.173  -3.101  1.00  0.00     0.031 A 
HETATM   11  C   UNL     1       5.506  -0.833  -3.451  1.00  0.00     0.050 A 
ENDROOT
BRANCH   5  12
HETATM   12  N   UNL     1       6.650   1.543  -6.822  1.00  0.00    -0.242 N 
HETATM   13  C   UNL     1       6.550   2.347  -7.950  1.00  0.00     0.271 C 
HETATM   14  O   UNL     1       5.931   3.404  -8.019  1.00  0.00    -0.266 OA
HETATM   15  H   UNL     1       7.392   0.857  -6.763  1.00  0.00     0.192 HD
BRANCH  13  16
HETATM   16  C   UNL     1       7.250   1.836  -9.167  1.00  0.00     0.033 A 
HETATM   17  C   UNL     1       7.477   0.470  -9.380  1.00  0.00     0.017 A 
HETATM   18  C   UNL     1       8.098   0.026 -10.552  1.00  0.00     0.008 A 
HETATM   19  C   UNL     1       8.493   0.936 -11.541  1.00  0.00    -0.055 A 
HETATM   20  C   UNL     1       8.250   2.302 -11.327  1.00  0.00     0.008 A 
HETATM   21  C   UNL     1       7.629   2.748 -10.156  1.00  0.00     0.017 A 
BRANCH  19  22
HETATM   22  C   UNL     1       9.141   0.435 -12.822  1.00  0.00     0.010 C 
HETATM   23  C   UNL     1       8.308   0.803 -14.053  1.00  0.00     0.015 C 
HETATM   24  C   UNL     1      10.575   0.948 -12.971  1.00  0.00     0.015 C 
ENDBRANCH  19  22
ENDBRANCH  13  16
ENDBRANCH   5  12
BRANCH   1  25
HETATM   25  C   UNL     1       4.709   0.207  -1.283  1.00  0.00     0.160 C 
BRANCH  25  26
HETATM   26  C   UNL     1       3.215   0.054  -1.205  1.00  0.00    -0.005 C 
HETATM   27  C   UNL     1       2.542  -0.609  -0.240  1.00  0.00    -0.090 C 
HETATM   28  C   UNL     1       1.037  -0.623  -0.231  1.00  0.00     0.042 C 
HETATM   29  C   UNL     1       3.237  -1.300   0.900  1.00  0.00     0.042 C 
ENDBRANCH  25  26
ENDBRANCH   1  25
TORSDOF 5
