REMARK  5 active torsions:
REMARK  status: ('A' for Active; 'I' for Inactive)
REMARK    1  A    between atoms: C_4  and  C_5 
REMARK    2  A    between atoms: C_5  and  N_6 
REMARK    3  A    between atoms: N_10  and  N_11 
REMARK       I    between atoms: N_11  and  C_12 
REMARK    4  A    between atoms: C_12  and  C_14 
REMARK    5  A    between atoms: C_17  and  C_18 
ROOT
HETATM    1  N   UNL     1       5.012  -2.162   1.611  1.00  0.00    -0.308 N 
HETATM    2  C   UNL     1       5.785  -2.114   2.757  1.00  0.00     0.280 A 
HETATM    3  O   UNL     1       6.320  -1.160   3.281  1.00  0.00    -0.265 OA
HETATM    4  C   UNL     1       5.845  -3.564   3.271  1.00  0.00     0.157 A 
HETATM    5  N   UNL     1       6.470  -3.863   4.367  1.00  0.00    -0.166 NA
HETATM    6  C   UNL     1       5.110  -4.368   2.283  1.00  0.00     0.027 A 
HETATM    7  C   UNL     1       4.918  -5.733   2.151  1.00  0.00     0.016 A 
HETATM    8  C   UNL     1       4.165  -6.197   1.069  1.00  0.00     0.001 A 
HETATM    9  C   UNL     1       3.644  -5.301   0.126  1.00  0.00     0.002 A 
HETATM   10  C   UNL     1       3.878  -3.928   0.242  1.00  0.00     0.031 A 
HETATM   11  C   UNL     1       4.619  -3.478   1.324  1.00  0.00     0.050 A 
ENDROOT
BRANCH   5  12
HETATM   12  N   UNL     1       6.386  -5.132   4.851  1.00  0.00    -0.242 N 
HETATM   13  C   UNL     1       7.319  -5.593   5.773  1.00  0.00     0.271 C 
HETATM   14  O   UNL     1       8.274  -4.956   6.204  1.00  0.00    -0.266 OA
HETATM   15  H   UNL     1       5.492  -5.598   4.775  1.00  0.00     0.192 HD
BRANCH  13  16
HETATM   16  C   UNL     1       7.115  -7.001   6.233  1.00  0.00     0.033 A 
HETATM   17  C   UNL     1       6.451  -7.945   5.446  1.00  0.00     0.017 A 
HETATM   18  C   UNL     1       6.328  -9.272   5.869  1.00  0.00     0.009 A 
HETATM   19  C   UNL     1       6.878  -9.706   7.084  1.00  0.00    -0.051 A 
HETATM   20  C   UNL     1       7.545  -8.745   7.868  1.00  0.00     0.009 A 
HETATM   21  C   UNL     1       7.667  -7.410   7.448  1.00  0.00     0.017 A 
BRANCH  19  22
HETATM   22  C   UNL     1       6.800 -11.174   7.539  1.00  0.00    -0.024 C 
HETATM   23  C   UNL     1       6.030 -12.085   6.554  1.00  0.00     0.019 C 
HETATM   24  C   UNL     1       8.225 -11.750   7.674  1.00  0.00     0.019 C 
HETATM   25  C   UNL     1       6.083 -11.269   8.901  1.00  0.00     0.019 C 
ENDBRANCH  19  22
ENDBRANCH  13  16
ENDBRANCH   5  12
BRANCH   1  26
HETATM   26  C   UNL     1       4.705  -1.004   0.813  1.00  0.00     0.160 C 
BRANCH  26  27
HETATM   27  C   UNL     1       3.392  -0.427   1.262  1.00  0.00    -0.005 C 
HETATM   28  C   UNL     1       3.194   0.806   1.773  1.00  0.00    -0.090 C 
HETATM   29  C   UNL     1       1.810   1.255   2.152  1.00  0.00     0.042 C 
HETATM   30  C   UNL     1       4.315   1.784   1.996  1.00  0.00     0.042 C 
ENDBRANCH  26  27
ENDBRANCH   1  26
TORSDOF 5
