REMARK  5 active torsions:
REMARK  status: ('A' for Active; 'I' for Inactive)
REMARK    1  A    between atoms: C_4  and  C_5 
REMARK    2  A    between atoms: C_5  and  N_6 
REMARK    3  A    between atoms: N_10  and  N_11 
REMARK       I    between atoms: N_11  and  C_12 
REMARK    4  A    between atoms: C_12  and  C_14 
REMARK    5  A    between atoms: C_18  and  C_19 
ROOT
HETATM    1  N   UNL     1       5.154   1.167  -2.447  1.00  0.00    -0.308 N 
HETATM    2  C   UNL     1       5.046   2.504  -2.797  1.00  0.00     0.280 A 
HETATM    3  O   UNL     1       4.628   3.434  -2.148  1.00  0.00    -0.265 OA
HETATM    4  C   UNL     1       5.570   2.586  -4.247  1.00  0.00     0.157 A 
HETATM    5  N   UNL     1       5.645   3.719  -4.869  1.00  0.00    -0.166 NA
HETATM    6  C   UNL     1       5.885   1.203  -4.640  1.00  0.00     0.027 A 
HETATM    7  C   UNL     1       6.293   0.645  -5.840  1.00  0.00     0.016 A 
HETATM    8  C   UNL     1       6.569  -0.725  -5.872  1.00  0.00     0.001 A 
HETATM    9  C   UNL     1       6.397  -1.515  -4.726  1.00  0.00     0.002 A 
HETATM   10  C   UNL     1       5.913  -0.955  -3.541  1.00  0.00     0.031 A 
HETATM   11  C   UNL     1       5.658   0.407  -3.514  1.00  0.00     0.050 A 
ENDROOT
BRANCH   5  12
HETATM   12  N   UNL     1       6.209   3.771  -6.106  1.00  0.00    -0.242 N 
HETATM   13  C   UNL     1       5.863   4.802  -6.969  1.00  0.00     0.271 C 
HETATM   14  O   UNL     1       5.045   5.685  -6.731  1.00  0.00    -0.266 OA
HETATM   15  H   UNL     1       7.051   3.235  -6.266  1.00  0.00     0.192 HD
BRANCH  13  16
HETATM   16  C   UNL     1       6.513   4.773  -8.311  1.00  0.00     0.034 A 
HETATM   17  C   UNL     1       6.956   3.580  -8.898  1.00  0.00     0.017 A 
HETATM   18  C   UNL     1       7.434   3.571 -10.211  1.00  0.00     0.002 A 
HETATM   19  C   UNL     1       7.440   4.748 -10.956  1.00  0.00     0.016 A 
HETATM   20  C   UNL     1       6.976   5.947 -10.396  1.00  0.00     0.048 A 
HETATM   21  C   UNL     1       6.544   5.956  -9.059  1.00  0.00     0.033 A 
BRANCH  20  22
HETATM   22  C   UNL     1       6.863   7.202 -11.226  1.00  0.00     0.417 C 
HETATM   23  F   UNL     1       7.222   7.020 -12.528  1.00  0.00    -0.166 F 
HETATM   24  F   UNL     1       5.590   7.685 -11.258  1.00  0.00    -0.166 F 
HETATM   25  F   UNL     1       7.642   8.216 -10.761  1.00  0.00    -0.166 F 
ENDBRANCH  20  22
ENDBRANCH  13  16
ENDBRANCH   5  12
BRANCH   1  26
HETATM   26  C   UNL     1       4.711   0.636  -1.183  1.00  0.00     0.160 C 
BRANCH  26  27
HETATM   27  C   UNL     1       5.844   0.649  -0.198  1.00  0.00    -0.005 C 
HETATM   28  C   UNL     1       5.860   1.317   0.974  1.00  0.00    -0.090 C 
HETATM   29  C   UNL     1       7.039   1.208   1.901  1.00  0.00     0.042 C 
HETATM   30  C   UNL     1       4.716   2.186   1.423  1.00  0.00     0.042 C 
ENDBRANCH  26  27
ENDBRANCH   1  26
TORSDOF 5
