REMARK  10 active torsions:
REMARK  status: ('A' for Active; 'I' for Inactive)
REMARK    1  A    between atoms: C_2  and  C_3 
REMARK    2  A    between atoms: C_3  and  C_4 
REMARK    3  A    between atoms: C_4  and  C_5 
REMARK    4  A    between atoms: C_5  and  C_6 
REMARK    5  A    between atoms: C_6  and  C_7 
REMARK    6  A    between atoms: C_7  and  C_8 
REMARK    7  A    between atoms: C_8  and  C_9 
REMARK    8  A    between atoms: C_12  and  O_13 
REMARK    9  A    between atoms: C_14  and  O_15 
REMARK   10  A    between atoms: C_16  and  O_17 
ROOT
HETATM    1  C   UNL     1       9.132   2.989  -4.817  1.00  0.00    -0.022 A 
HETATM    2  C   UNL     1       9.318   4.381  -4.731  1.00  0.00     0.013 A 
HETATM    3  C   UNL     1       9.650   5.128  -5.864  1.00  0.00     0.040 A 
HETATM    4  C   UNL     1       9.798   4.477  -7.083  1.00  0.00     0.101 A 
HETATM    5  C   UNL     1       9.636   3.102  -7.172  1.00  0.00     0.133 A 
HETATM    6  C   UNL     1       9.305   2.359  -6.047  1.00  0.00     0.107 A 
ENDROOT
BRANCH   1   7
HETATM    7  C   UNL     1       8.666   2.226  -3.611  1.00  0.00     0.041 C 
BRANCH   7   8
HETATM    8  C   UNL     1       7.136   2.176  -3.573  1.00  0.00     0.005 C 
BRANCH   8   9
HETATM    9  C   UNL     1       6.615   1.426  -2.352  1.00  0.00     0.000 C 
BRANCH   9  10
HETATM   10  C   UNL     1       7.055   2.097  -1.054  1.00  0.00     0.000 C 
BRANCH  10  11
HETATM   11  C   UNL     1       6.535   1.348   0.162  1.00  0.00     0.000 C 
BRANCH  11  12
HETATM   12  C   UNL     1       7.006   2.031   1.442  1.00  0.00    -0.000 C 
BRANCH  12  13
HETATM   13  C   UNL     1       6.491   1.289   2.669  1.00  0.00    -0.005 C 
HETATM   14  C   UNL     1       6.950   1.964   3.950  1.00  0.00     0.005 C 
ENDBRANCH  12  13
ENDBRANCH  11  12
ENDBRANCH  10  11
ENDBRANCH   9  10
ENDBRANCH   8   9
ENDBRANCH   7   8
ENDBRANCH   1   7
BRANCH   6  15
HETATM   15  O   UNL     1       9.127   1.009  -6.165  1.00  0.00    -0.357 OA
HETATM   16  H   UNL     1       9.295   0.824  -7.114  1.00  0.00     0.217 HD
ENDBRANCH   6  15
BRANCH   5  17
HETATM   17  O   UNL     1       9.773   2.455  -8.370  1.00  0.00    -0.356 OA
HETATM   18  H   UNL     1       9.983   3.174  -9.001  1.00  0.00     0.218 HD
ENDBRANCH   5  17
BRANCH   4  19
HETATM   19  O   UNL     1      10.086   5.157  -8.233  1.00  0.00    -0.358 OA
HETATM   20  H   UNL     1      10.106   6.106  -8.021  1.00  0.00     0.217 HD
ENDBRANCH   4  19
TORSDOF 10
