REMARK  4 active torsions:
REMARK  status: ('A' for Active; 'I' for Inactive)
REMARK    1  A    between atoms: C_4  and  C_5 
REMARK    2  A    between atoms: C_5  and  N_6 
REMARK    3  A    between atoms: N_10  and  N_11 
REMARK    4  A    between atoms: N_11  and  C_12 
ROOT
HETATM    1  N   UNL     1       5.211   0.906  -2.479  1.00  0.00    -0.308 N 
HETATM    2  C   UNL     1       5.189   2.209  -2.952  1.00  0.00     0.279 A 
HETATM    3  O   UNL     1       4.869   3.230  -2.383  1.00  0.00    -0.265 OA
HETATM    4  C   UNL     1       5.654   2.113  -4.419  1.00  0.00     0.152 A 
HETATM    5  N   UNL     1       5.761   3.173  -5.157  1.00  0.00    -0.190 NA
HETATM    6  C   UNL     1       5.903   0.691  -4.673  1.00  0.00     0.026 A 
HETATM    7  C   UNL     1       6.312   0.013  -5.809  1.00  0.00     0.016 A 
HETATM    8  C   UNL     1       6.537  -1.362  -5.702  1.00  0.00     0.001 A 
HETATM    9  C   UNL     1       6.324  -2.033  -4.487  1.00  0.00     0.002 A 
HETATM   10  C   UNL     1       5.858  -1.345  -3.363  1.00  0.00     0.031 A 
HETATM   11  C   UNL     1       5.655   0.021  -3.471  1.00  0.00     0.050 A 
ENDROOT
BRANCH   5  12
HETATM   12  N   UNL     1       6.197   3.025  -6.444  1.00  0.00    -0.182 NA
HETATM   13  H   UNL     1       7.215   3.008  -6.531  1.00  0.00     0.155 HD
BRANCH  12  14
HETATM   14  C   UNL     1       5.672   3.984  -7.358  1.00  0.00     0.029 A 
HETATM   15  C   UNL     1       6.404   4.359  -8.494  1.00  0.00     0.025 A 
HETATM   16  C   UNL     1       5.858   5.240  -9.435  1.00  0.00     0.002 A 
HETATM   17  C   UNL     1       4.566   5.734  -9.262  1.00  0.00     0.000 A 
HETATM   18  C   UNL     1       3.817   5.344  -8.157  1.00  0.00     0.002 A 
HETATM   19  C   UNL     1       4.366   4.471  -7.216  1.00  0.00     0.025 A 
ENDBRANCH  12  14
ENDBRANCH   5  12
BRANCH   1  20
HETATM   20  C   UNL     1       4.774   0.528  -1.157  1.00  0.00     0.160 C 
BRANCH  20  21
HETATM   21  C   UNL     1       5.927   0.578  -0.197  1.00  0.00    -0.005 C 
HETATM   22  C   UNL     1       6.000   1.361   0.898  1.00  0.00    -0.090 C 
HETATM   23  C   UNL     1       7.191   1.289   1.813  1.00  0.00     0.042 C 
HETATM   24  C   UNL     1       4.908   2.329   1.271  1.00  0.00     0.042 C 
ENDBRANCH  20  21
ENDBRANCH   1  20
TORSDOF 4
