REMARK  4 active torsions:
REMARK  status: ('A' for Active; 'I' for Inactive)
REMARK    1  A    between atoms: C_4  and  C_5 
REMARK    2  A    between atoms: C_5  and  N_6 
REMARK    3  A    between atoms: N_10  and  N_11 
REMARK       I    between atoms: N_11  and  C_12 
REMARK    4  A    between atoms: C_12  and  C_14 
ROOT
HETATM    1  N   UNL     1       5.232   2.309  -1.304  1.00  0.00    -0.308 N 
HETATM    2  C   UNL     1       4.881   3.606  -0.967  1.00  0.00     0.280 A 
HETATM    3  O   UNL     1       4.273   4.010   0.001  1.00  0.00    -0.265 OA
HETATM    4  C   UNL     1       5.480   4.492  -2.075  1.00  0.00     0.157 A 
HETATM    5  N   UNL     1       5.327   5.779  -2.061  1.00  0.00    -0.166 NA
HETATM    6  C   UNL     1       6.151   3.570  -3.005  1.00  0.00     0.027 A 
HETATM    7  C   UNL     1       6.800   3.773  -4.211  1.00  0.00     0.016 A 
HETATM    8  C   UNL     1       7.369   2.671  -4.857  1.00  0.00     0.001 A 
HETATM    9  C   UNL     1       7.257   1.389  -4.305  1.00  0.00     0.002 A 
HETATM   10  C   UNL     1       6.548   1.183  -3.117  1.00  0.00     0.031 A 
HETATM   11  C   UNL     1       5.992   2.285  -2.481  1.00  0.00     0.050 A 
ENDROOT
BRANCH   5  12
HETATM   12  N   UNL     1       5.988   6.526  -2.985  1.00  0.00    -0.242 N 
HETATM   13  C   UNL     1       5.539   7.799  -3.312  1.00  0.00     0.271 C 
HETATM   14  O   UNL     1       4.537   8.348  -2.870  1.00  0.00    -0.266 OA
HETATM   15  H   UNL     1       6.950   6.275  -3.175  1.00  0.00     0.192 HD
BRANCH  13  16
HETATM   16  C   UNL     1       6.379   8.519  -4.314  1.00  0.00     0.035 A 
HETATM   17  C   UNL     1       7.122   7.823  -5.279  1.00  0.00     0.017 A 
HETATM   18  C   UNL     1       7.903   8.509  -6.207  1.00  0.00     0.003 A 
HETATM   19  C   UNL     1       7.930   9.898  -6.187  1.00  0.00     0.024 A 
HETATM   20  C   UNL     1       7.167  10.598  -5.250  1.00  0.00     0.035 A 
HETATM   21 CL   UNL     1       7.195  12.319  -5.252  1.00  0.00    -0.084 Cl
HETATM   22  C   UNL     1       6.387   9.918  -4.316  1.00  0.00     0.041 A 
ENDBRANCH  13  16
ENDBRANCH   5  12
BRANCH   1  23
HETATM   23  C   UNL     1       4.825   1.158  -0.538  1.00  0.00     0.160 C 
BRANCH  23  24
HETATM   24  C   UNL     1       3.463   0.707  -0.995  1.00  0.00    -0.005 C 
HETATM   25  C   UNL     1       2.360   0.607  -0.223  1.00  0.00    -0.090 C 
HETATM   26  C   UNL     1       1.049   0.166  -0.815  1.00  0.00     0.042 C 
HETATM   27  C   UNL     1       2.365   0.943   1.243  1.00  0.00     0.042 C 
ENDBRANCH  23  24
ENDBRANCH   1  23
TORSDOF 4
