REMARK  5 active torsions:
REMARK  status: ('A' for Active; 'I' for Inactive)
REMARK    1  A    between atoms: C_4  and  C_5 
REMARK    2  A    between atoms: C_5  and  N_6 
REMARK    3  A    between atoms: N_10  and  N_11 
REMARK       I    between atoms: N_11  and  C_12 
REMARK    4  A    between atoms: C_12  and  C_14 
REMARK    5  A    between atoms: C_17  and  C_18 
ROOT
HETATM    1  N   UNL     1       5.089   2.637   0.740  1.00  0.00    -0.308 N 
HETATM    2  C   UNL     1       4.518   3.814   0.280  1.00  0.00     0.280 A 
HETATM    3  O   UNL     1       3.582   3.968  -0.475  1.00  0.00    -0.265 OA
HETATM    4  C   UNL     1       5.368   4.950   0.891  1.00  0.00     0.157 A 
HETATM    5  N   UNL     1       4.996   6.189   0.797  1.00  0.00    -0.166 NA
HETATM    6  C   UNL     1       6.509   4.284   1.540  1.00  0.00     0.027 A 
HETATM    7  C   UNL     1       7.676   4.773   2.108  1.00  0.00     0.016 A 
HETATM    8  C   UNL     1       8.576   3.859   2.662  1.00  0.00     0.001 A 
HETATM    9  C   UNL     1       8.322   2.482   2.602  1.00  0.00     0.002 A 
HETATM   10  C   UNL     1       7.168   1.995   1.982  1.00  0.00     0.031 A 
HETATM   11  C   UNL     1       6.270   2.909   1.451  1.00  0.00     0.050 A 
ENDROOT
BRANCH   5  12
HETATM   12  N   UNL     1       5.693   7.166   1.439  1.00  0.00    -0.242 N 
HETATM   13  C   UNL     1       5.299   8.493   1.346  1.00  0.00     0.271 C 
HETATM   14  O   UNL     1       4.325   8.914   0.726  1.00  0.00    -0.266 OA
HETATM   15  H   UNL     1       6.317   6.905   2.186  1.00  0.00     0.192 HD
BRANCH  13  16
HETATM   16  C   UNL     1       6.153   9.457   2.099  1.00  0.00     0.033 A 
HETATM   17  C   UNL     1       7.522   9.229   2.300  1.00  0.00     0.018 A 
HETATM   18  C   UNL     1       8.301  10.166   2.980  1.00  0.00     0.017 A 
HETATM   19  C   UNL     1       7.731  11.356   3.460  1.00  0.00     0.048 A 
HETATM   20  C   UNL     1       6.361  11.585   3.249  1.00  0.00     0.017 A 
HETATM   21  C   UNL     1       5.580  10.645   2.571  1.00  0.00     0.018 A 
BRANCH  19  22
HETATM   22  C   UNL     1       8.569  12.388   4.178  1.00  0.00     0.417 C 
HETATM   23  F   UNL     1       9.876  12.025   4.312  1.00  0.00    -0.166 F 
HETATM   24  F   UNL     1       8.579  13.589   3.540  1.00  0.00    -0.166 F 
HETATM   25  F   UNL     1       8.120  12.633   5.440  1.00  0.00    -0.166 F 
ENDBRANCH  19  22
ENDBRANCH  13  16
ENDBRANCH   5  12
BRANCH   1  26
HETATM   26  C   UNL     1       4.652   1.325   0.321  1.00  0.00     0.160 C 
BRANCH  26  27
HETATM   27  C   UNL     1       3.519   0.845   1.185  1.00  0.00    -0.005 C 
HETATM   28  C   UNL     1       2.301   0.457   0.748  1.00  0.00    -0.090 C 
HETATM   29  C   UNL     1       1.246   0.008   1.721  1.00  0.00     0.042 C 
HETATM   30  C   UNL     1       1.922   0.469  -0.709  1.00  0.00     0.042 C 
ENDBRANCH  26  27
ENDBRANCH   1  26
TORSDOF 5
