REMARK  4 active torsions:
REMARK  status: ('A' for Active; 'I' for Inactive)
REMARK    1  A    between atoms: C_4  and  C_5 
REMARK    2  A    between atoms: C_5  and  N_6 
REMARK    3  A    between atoms: N_10  and  N_11 
REMARK       I    between atoms: N_11  and  C_12 
REMARK    4  A    between atoms: C_12  and  C_14 
ROOT
HETATM    1  N   UNL     1       5.156   1.000   2.446  1.00  0.00    -0.308 N 
HETATM    2  C   UNL     1       5.092   2.341   2.766  1.00  0.00     0.280 A 
HETATM    3  O   UNL     1       4.722   3.281   2.093  1.00  0.00    -0.265 OA
HETATM    4  C   UNL     1       5.590   2.444   4.218  1.00  0.00     0.157 A 
HETATM    5  N   UNL     1       5.503   3.562   4.863  1.00  0.00    -0.166 NA
HETATM    6  C   UNL     1       5.996   1.081   4.599  1.00  0.00     0.027 A 
HETATM    7  C   UNL     1       6.546   0.565   5.759  1.00  0.00     0.016 A 
HETATM    8  C   UNL     1       6.792  -0.810   5.811  1.00  0.00     0.001 A 
HETATM    9  C   UNL     1       6.472  -1.640   4.726  1.00  0.00     0.002 A 
HETATM   10  C   UNL     1       5.909  -1.111   3.563  1.00  0.00     0.031 A 
HETATM   11  C   UNL     1       5.685   0.256   3.510  1.00  0.00     0.050 A 
ENDROOT
BRANCH   5  12
HETATM   12  N   UNL     1       5.913   3.599   6.151  1.00  0.00    -0.242 N 
HETATM   13  C   UNL     1       5.398   4.451   7.113  1.00  0.00     0.271 C 
HETATM   14  O   UNL     1       5.968   4.524   8.204  1.00  0.00    -0.266 OA
HETATM   15  H   UNL     1       6.845   3.260   6.360  1.00  0.00     0.192 HD
BRANCH  13  16
HETATM   16  C   UNL     1       4.167   5.260   6.869  1.00  0.00     0.033 A 
HETATM   17  C   UNL     1       3.169   4.905   5.956  1.00  0.00     0.017 A 
HETATM   18  C   UNL     1       2.033   5.705   5.794  1.00  0.00     0.007 A 
HETATM   19  C   UNL     1       1.861   6.860   6.562  1.00  0.00    -0.062 A 
HETATM   20  C   UNL     1       0.628   7.700   6.411  1.00  0.00     0.048 C 
HETATM   21  C   UNL     1       2.849   7.213   7.488  1.00  0.00     0.007 A 
HETATM   22  C   UNL     1       3.990   6.419   7.640  1.00  0.00     0.017 A 
ENDBRANCH  13  16
ENDBRANCH   5  12
BRANCH   1  23
HETATM   23  C   UNL     1       4.748   0.473   1.167  1.00  0.00     0.160 C 
BRANCH  23  24
HETATM   24  C   UNL     1       3.279   0.141   1.206  1.00  0.00    -0.005 C 
HETATM   25  C   UNL     1       2.331   0.663   0.399  1.00  0.00    -0.090 C 
HETATM   26  C   UNL     1       0.889   0.266   0.558  1.00  0.00     0.042 C 
HETATM   27  C   UNL     1       2.647   1.672  -0.671  1.00  0.00     0.042 C 
ENDBRANCH  23  24
ENDBRANCH   1  23
TORSDOF 4
