REMARK  2 active torsions:
REMARK  status: ('A' for Active; 'I' for Inactive)
REMARK    1  A    between atoms: O_1  and  C_2 
REMARK    2  A    between atoms: C_5  and  C_6 
ROOT
HETATM    1  C   UNL     1      -3.409   0.073  -0.036  1.00  0.00     0.139 A 
HETATM    2  N   UNL     1      -4.218  -0.479   0.850  1.00  0.00    -0.228 NA
HETATM    3  C   UNL     1      -5.494  -0.185   0.436  1.00  0.00     0.086 A 
HETATM    4  C   UNL     1      -6.727  -0.496   1.027  1.00  0.00     0.035 A 
HETATM    5  C   UNL     1      -7.905  -0.086   0.385  1.00  0.00     0.021 A 
HETATM    6  C   UNL     1      -7.848   0.618  -0.819  1.00  0.00     0.013 A 
HETATM    7 BR   UNL     1      -9.460   1.139  -1.667  1.00  0.00    -0.051 Br
HETATM    8  C   UNL     1      -6.629   0.950  -1.422  1.00  0.00     0.051 A 
HETATM    9  C   UNL     1      -5.475   0.531  -0.754  1.00  0.00     0.064 A 
HETATM   10  N   UNL     1      -4.143   0.678  -1.032  1.00  0.00    -0.338 N 
HETATM   11  H   UNL     1      -3.756   1.141  -1.841  1.00  0.00     0.167 HD
ENDROOT
BRANCH   1  12
HETATM   12  C   UNL     1      -1.945   0.052  -0.022  1.00  0.00     0.010 A 
HETATM   13  C   UNL     1      -1.262  -1.032   0.549  1.00  0.00     0.018 A 
HETATM   14  C   UNL     1       0.137  -1.074   0.556  1.00  0.00     0.037 A 
HETATM   15  C   UNL     1       0.854  -0.018   0.001  1.00  0.00     0.065 A 
HETATM   16  C   UNL     1       0.198   1.073  -0.552  1.00  0.00     0.037 A 
HETATM   17  C   UNL     1      -1.197   1.109  -0.565  1.00  0.00     0.018 A 
BRANCH  15  18
HETATM   18  O   UNL     1       2.216  -0.011  -0.017  1.00  0.00    -0.361 OA
HETATM   19  H   UNL     1       2.538  -0.826   0.402  1.00  0.00     0.217 HD
ENDBRANCH  15  18
ENDBRANCH   1  12
TORSDOF 2
