REMARK  5 active torsions:
REMARK  status: ('A' for Active; 'I' for Inactive)
REMARK       I    between atoms: C_2  and  N_3 
REMARK    1  A    between atoms: C_2  and  C_25 
REMARK    2  A    between atoms: N_3  and  N_4 
REMARK    3  A    between atoms: C_5  and  C_6 
REMARK    4  A    between atoms: C_7  and  O_8 
REMARK    5  A    between atoms: C_15  and  C_16 
ROOT
HETATM    1  C   UNL     1       2.218   4.632  -1.523  1.00  0.00     0.051 A 
HETATM    2  C   UNL     1       1.126   5.070  -0.754  1.00  0.00     0.080 A 
HETATM    3  C   UNL     1       0.431   6.234  -1.081  1.00  0.00     0.038 A 
HETATM    4  C   UNL     1       0.828   6.995  -2.175  1.00  0.00     0.021 A 
HETATM    5  C   UNL     1       1.925   6.583  -2.937  1.00  0.00     0.049 A 
HETATM    6  C   UNL     1       2.365   7.404  -4.076  1.00  0.00     0.187 A 
HETATM    7  O   UNL     1       1.824   8.470  -4.375  1.00  0.00    -0.287 OA
HETATM    8  C   UNL     1       3.500   6.898  -4.850  1.00  0.00     0.093 A 
HETATM    9  C   UNL     1       4.071   5.744  -4.476  1.00  0.00     0.090 A 
HETATM   10  O   UNL     1       3.677   4.970  -3.398  1.00  0.00    -0.308 OA
HETATM   11  C   UNL     1       2.617   5.399  -2.631  1.00  0.00     0.104 A 
ENDROOT
BRANCH   1  12
HETATM   12  C   UNL     1       2.940   3.384  -1.142  1.00  0.00     0.155 C 
HETATM   13  N   UNL     1       2.551   2.703  -0.107  1.00  0.00    -0.183 NA
BRANCH  13  14
HETATM   14  N   UNL     1       3.232   1.571   0.230  1.00  0.00    -0.243 N 
HETATM   15  C   UNL     1       2.824   0.832   1.345  1.00  0.00     0.271 C 
HETATM   16  O   UNL     1       1.877   1.124   2.069  1.00  0.00    -0.266 OA
HETATM   17  H   UNL     1       3.952   1.223  -0.390  1.00  0.00     0.192 HD
BRANCH  15  18
HETATM   18  C   UNL     1       3.588  -0.422   1.618  1.00  0.00     0.033 A 
HETATM   19  C   UNL     1       2.926  -1.517   2.196  1.00  0.00     0.017 A 
HETATM   20  C   UNL     1       3.606  -2.719   2.417  1.00  0.00     0.001 A 
HETATM   21  C   UNL     1       4.952  -2.831   2.067  1.00  0.00     0.000 A 
HETATM   22  C   UNL     1       5.625  -1.736   1.528  1.00  0.00     0.001 A 
HETATM   23  C   UNL     1       4.953  -0.526   1.325  1.00  0.00     0.017 A 
ENDBRANCH  15  18
ENDBRANCH  13  14
ENDBRANCH   1  12
BRANCH   2  24
HETATM   24  O   UNL     1       0.674   4.402   0.352  1.00  0.00    -0.360 OA
HETATM   25  H   UNL     1       1.113   3.520   0.391  1.00  0.00     0.217 HD
ENDBRANCH   2  24
BRANCH   9  26
HETATM   26  C   UNL     1       5.205   5.204  -5.230  1.00  0.00    -0.002 A 
HETATM   27  C   UNL     1       6.519   5.549  -4.880  1.00  0.00     0.017 A 
HETATM   28  C   UNL     1       7.596   5.036  -5.608  1.00  0.00     0.043 A 
HETATM   29  C   UNL     1       7.357   4.184  -6.681  1.00  0.00     0.116 A 
HETATM   30  F   UNL     1       8.390   3.695  -7.379  1.00  0.00    -0.206 F 
HETATM   31  C   UNL     1       6.062   3.830  -7.039  1.00  0.00     0.043 A 
HETATM   32  C   UNL     1       4.983   4.344  -6.315  1.00  0.00     0.017 A 
ENDBRANCH   9  26
TORSDOF 5
