REMARK  7 active torsions:
REMARK  status: ('A' for Active; 'I' for Inactive)
REMARK    1  A    between atoms: N_2  and  C_4 
REMARK    2  A    between atoms: C_7  and  S_8 
REMARK    3  A    between atoms: S_8  and  N_11 
REMARK    4  A    between atoms: N_11  and  N_12 
REMARK    5  A    between atoms: C_13  and  C_14 
REMARK    6  A    between atoms: C_13  and  C_20 
REMARK    7  A    between atoms: C_23  and  O_24 
ROOT
HETATM    1  N   UNL     1       5.588  -5.457   5.187  1.00  0.00    -0.185 NA
HETATM    2  C   UNL     1       4.919  -6.550   5.454  1.00  0.00     0.092 C 
ENDROOT
BRANCH   1   3
HETATM    3  N   UNL     1       4.988  -4.478   4.279  1.00  0.00    -0.102 NA
HETATM    4  H   UNL     1       4.395  -3.843   4.821  1.00  0.00     0.168 HD
BRANCH   3   5
HETATM    5  S   UNL     1       6.043  -3.442   3.398  1.00  0.00     0.260 S 
HETATM    6  O   UNL     1       6.852  -4.210   2.481  1.00  0.00    -0.204 OA
HETATM    7  O   UNL     1       6.611  -2.486   4.327  1.00  0.00    -0.204 OA
BRANCH   5   8
HETATM    8  C   UNL     1       4.836  -2.543   2.419  1.00  0.00     0.076 A 
HETATM    9  C   UNL     1       4.348  -1.307   2.876  1.00  0.00     0.027 A 
HETATM   10  C   UNL     1       3.437  -0.586   2.095  1.00  0.00     0.037 A 
HETATM   11  C   UNL     1       3.026  -1.100   0.856  1.00  0.00     0.102 A 
HETATM   12  C   UNL     1       3.520  -2.331   0.396  1.00  0.00     0.037 A 
HETATM   13  C   UNL     1       4.429  -3.052   1.179  1.00  0.00     0.027 A 
BRANCH  11  14
HETATM   14  N   UNL     1       2.079  -0.337   0.029  1.00  0.00    -0.116 N 
HETATM   15  O   UNL     1       1.658   0.739   0.478  1.00  0.00    -0.532 OA
HETATM   16  O   UNL     1       1.751  -0.819  -1.064  1.00  0.00    -0.532 OA
ENDBRANCH  11  14
ENDBRANCH   5   8
ENDBRANCH   3   5
ENDBRANCH   1   3
BRANCH   2  17
HETATM   17  C   UNL     1       3.617  -6.965   4.809  1.00  0.00    -0.005 A 
HETATM   18  C   UNL     1       3.418  -8.314   4.467  1.00  0.00     0.014 A 
HETATM   19  C   UNL     1       2.208  -8.742   3.916  1.00  0.00     0.001 A 
HETATM   20  C   UNL     1       1.206  -7.818   3.637  1.00  0.00     0.000 A 
HETATM   21  C   UNL     1       1.399  -6.474   3.942  1.00  0.00     0.001 A 
HETATM   22  C   UNL     1       2.584  -6.056   4.555  1.00  0.00     0.014 A 
ENDBRANCH   2  17
BRANCH   2  23
HETATM   23  C   UNL     1       5.527  -7.504   6.462  1.00  0.00    -0.005 A 
HETATM   24  C   UNL     1       4.712  -8.309   7.279  1.00  0.00     0.016 A 
HETATM   25  C   UNL     1       5.273  -9.282   8.112  1.00  0.00     0.037 A 
HETATM   26  C   UNL     1       6.654  -9.418   8.165  1.00  0.00     0.065 A 
HETATM   27  C   UNL     1       7.479  -8.584   7.418  1.00  0.00     0.037 A 
HETATM   28  C   UNL     1       6.918  -7.624   6.566  1.00  0.00     0.016 A 
BRANCH  26  29
HETATM   29  O   UNL     1       7.242 -10.370   8.944  1.00  0.00    -0.361 OA
HETATM   30  H   UNL     1       6.550 -10.890   9.385  1.00  0.00     0.217 HD
ENDBRANCH  26  29
ENDBRANCH   2  23
TORSDOF 7
