REMARK  5 active torsions:
REMARK  status: ('A' for Active; 'I' for Inactive)
REMARK    1  A    between atoms: C_2  and  C_3 
REMARK    2  A    between atoms: C_3  and  C_4 
REMARK    3  A    between atoms: C_4  and  C_5 
REMARK    4  A    between atoms: C_8  and  O_9 
REMARK    5  A    between atoms: C_10  and  O_11 
ROOT
HETATM    1  C   UNL     1       4.988  -2.747   0.847  1.00  0.00    -0.055 A 
HETATM    2  C   UNL     1       4.616  -3.928   0.177  1.00  0.00     0.010 A 
HETATM    3  C   UNL     1       5.032  -5.180   0.639  1.00  0.00     0.040 A 
HETATM    4  C   UNL     1       5.840  -5.251   1.765  1.00  0.00     0.098 A 
HETATM    5  C   UNL     1       6.240  -4.088   2.416  1.00  0.00     0.099 A 
HETATM    6  C   UNL     1       5.824  -2.840   1.970  1.00  0.00     0.046 A 
ENDROOT
BRANCH   1   7
HETATM    7  C   UNL     1       4.495  -1.401   0.367  1.00  0.00     0.038 C 
BRANCH   7   8
HETATM    8  C   UNL     1       2.966  -1.306   0.387  1.00  0.00     0.004 C 
BRANCH   8   9
HETATM    9  C   UNL     1       2.460   0.054  -0.090  1.00  0.00    -0.004 C 
HETATM   10  C   UNL     1       0.939   0.103  -0.061  1.00  0.00     0.005 C 
ENDBRANCH   8   9
ENDBRANCH   7   8
ENDBRANCH   1   7
BRANCH   5  11
HETATM   11  O   UNL     1       7.048  -4.168   3.515  1.00  0.00    -0.358 OA
HETATM   12  H   UNL     1       7.202  -5.126   3.632  1.00  0.00     0.217 HD
ENDBRANCH   5  11
BRANCH   4  13
HETATM   13  O   UNL     1       6.267  -6.447   2.274  1.00  0.00    -0.358 OA
HETATM   14  H   UNL     1       5.862  -7.158   1.747  1.00  0.00     0.217 HD
ENDBRANCH   4  13
TORSDOF 5
