REMARK  4 active torsions:
REMARK  status: ('A' for Active; 'I' for Inactive)
REMARK    1  A    between atoms: O_2  and  C_3 
REMARK    2  A    between atoms: C_6  and  C_7 
REMARK    3  A    between atoms: C_9  and  C_10 
REMARK       I    between atoms: C_10  and  N_12 
REMARK    4  A    between atoms: N_12  and  C_13 
ROOT
HETATM    1  C   UNL     1       5.471  -2.071   4.350  1.00  0.00     0.108 A 
HETATM    2  N   UNL     1       5.995  -3.288   4.405  1.00  0.00    -0.235 NA
HETATM    3  C   UNL     1       6.659  -3.476   5.628  1.00  0.00     0.132 A 
HETATM    4  C   UNL     1       6.601  -2.386   6.477  1.00  0.00     0.089 A 
HETATM    5  S   UNL     1       5.719  -1.115   5.770  1.00  0.00    -0.079 SA
ENDROOT
BRANCH   3   6
HETATM    6  C   UNL     1       7.348  -4.717   6.022  1.00  0.00     0.271 C 
HETATM    7  O   UNL     1       7.896  -4.833   7.113  1.00  0.00    -0.266 OA
HETATM    8  N   UNL     1       7.325  -5.732   5.088  1.00  0.00    -0.351 N 
HETATM    9  H   UNL     1       6.974  -5.495   4.166  1.00  0.00     0.163 HD
BRANCH   8  10
HETATM   10  C   UNL     1       7.990  -7.010   5.335  1.00  0.00     0.084 C 
HETATM   11  C   UNL     1       9.444  -6.983   4.843  1.00  0.00     0.025 C 
HETATM   12  C   UNL     1      10.132  -8.339   4.999  1.00  0.00     0.002 C 
HETATM   13  C   UNL     1       9.338  -9.452   4.325  1.00  0.00     0.000 C 
HETATM   14  C   UNL     1       7.911  -9.508   4.861  1.00  0.00     0.002 C 
HETATM   15  C   UNL     1       7.198  -8.165   4.707  1.00  0.00     0.025 C 
ENDBRANCH   8  10
ENDBRANCH   3   6
BRANCH   1  16
HETATM   16  C   UNL     1       4.668  -1.519   3.239  1.00  0.00    -0.000 A 
HETATM   17  C   UNL     1       3.865  -2.369   2.467  1.00  0.00     0.017 A 
HETATM   18  C   UNL     1       3.065  -1.869   1.427  1.00  0.00     0.037 A 
HETATM   19  C   UNL     1       3.066  -0.507   1.128  1.00  0.00     0.068 A 
HETATM   20  C   UNL     1       3.862   0.350   1.886  1.00  0.00     0.037 A 
HETATM   21  C   UNL     1       4.657  -0.148   2.926  1.00  0.00     0.017 A 
BRANCH  19  22
HETATM   22  O   UNL     1       2.351   0.107   0.137  1.00  0.00    -0.356 OA
HETATM   23  C   UNL     1       1.583  -0.734  -0.715  1.00  0.00     0.210 C 
ENDBRANCH  19  22
ENDBRANCH   1  16
TORSDOF 4
