REMARK  4 active torsions:
REMARK  status: ('A' for Active; 'I' for Inactive)
REMARK    1  A    between atoms: O_2  and  C_3 
REMARK    2  A    between atoms: C_6  and  C_7 
REMARK       I    between atoms: C_7  and  N_9 
REMARK    3  A    between atoms: N_9  and  N_10 
REMARK       I    between atoms: N_10  and  C_11 
REMARK    4  A    between atoms: C_11  and  C_13 
ROOT
HETATM    1  C   UNL     1       5.456  -3.725  -3.239  1.00  0.00     0.270 C 
HETATM    2  O   UNL     1       6.384  -4.346  -2.724  1.00  0.00    -0.266 OA
HETATM    3  N   UNL     1       5.080  -3.909  -4.553  1.00  0.00    -0.263 N 
HETATM    4  H   UNL     1       4.214  -3.548  -4.951  1.00  0.00     0.190 HD
ENDROOT
BRANCH   3   5
HETATM    5  N   UNL     1       5.723  -4.908  -5.299  1.00  0.00    -0.263 N 
HETATM    6  C   UNL     1       5.280  -5.129  -6.586  1.00  0.00     0.270 C 
HETATM    7  O   UNL     1       4.337  -4.509  -7.074  1.00  0.00    -0.266 OA
HETATM    8  H   UNL     1       6.573  -5.293  -4.890  1.00  0.00     0.190 HD
BRANCH   6   9
HETATM    9  C   UNL     1       6.002  -6.146  -7.396  1.00  0.00     0.036 A 
HETATM   10  C   UNL     1       6.664  -7.236  -6.819  1.00  0.00     0.041 A 
HETATM   11  C   UNL     1       7.281  -8.181  -7.644  1.00  0.00     0.036 A 
HETATM   12 CL   UNL     1       8.076  -9.534  -6.939  1.00  0.00    -0.084 Cl
HETATM   13  C   UNL     1       7.250  -8.053  -9.032  1.00  0.00     0.047 A 
HETATM   14  C   UNL     1       6.586  -6.970  -9.598  1.00  0.00     0.036 A 
HETATM   15 CL   UNL     1       6.531  -6.804 -11.310  1.00  0.00    -0.084 Cl
HETATM   16  C   UNL     1       5.960  -6.021  -8.792  1.00  0.00     0.041 A 
ENDBRANCH   6   9
ENDBRANCH   3   5
BRANCH   1  17
HETATM   17  C   UNL     1       4.655  -2.750  -2.448  1.00  0.00     0.033 A 
HETATM   18  C   UNL     1       4.014  -1.655  -3.041  1.00  0.00     0.020 A 
HETATM   19  C   UNL     1       3.273  -0.759  -2.257  1.00  0.00     0.038 A 
HETATM   20  C   UNL     1       3.168  -0.948  -0.878  1.00  0.00     0.068 A 
HETATM   21  C   UNL     1       3.818  -2.035  -0.288  1.00  0.00     0.038 A 
HETATM   22  C   UNL     1       4.564  -2.928  -1.063  1.00  0.00     0.020 A 
BRANCH  20  23
HETATM   23  O   UNL     1       2.473  -0.154  -0.008  1.00  0.00    -0.356 OA
HETATM   24  C   UNL     1       1.831   0.993  -0.553  1.00  0.00     0.210 C 
ENDBRANCH  20  23
ENDBRANCH   1  17
TORSDOF 4
