REMARK  4 active torsions:
REMARK  status: ('A' for Active; 'I' for Inactive)
REMARK    1  A    between atoms: C_5  and  C_6 
REMARK    2  A    between atoms: N_7  and  N_8 
REMARK    3  A    between atoms: N_8  and  C_9 
REMARK    4  A    between atoms: C_11  and  C_12 
ROOT
HETATM    1  C   UNL     1      -6.016   2.396  -0.213  1.00  0.00     0.187 A 
HETATM    2  N   UNL     1      -5.634   3.473  -0.864  1.00  0.00    -0.222 NA
HETATM    3  C   UNL     1      -6.543   4.501  -0.707  1.00  0.00     0.076 A 
HETATM    4  C   UNL     1      -7.634   4.190   0.078  1.00  0.00     0.085 A 
HETATM    5  S   UNL     1      -7.536   2.554   0.588  1.00  0.00    -0.060 SA
ENDROOT
BRANCH   1   6
HETATM    6  N   UNL     1      -5.310   1.234  -0.125  1.00  0.00    -0.255 N 
HETATM    7  H   UNL     1      -5.737   0.503   0.438  1.00  0.00     0.191 HD
BRANCH   6   8
HETATM    8  N   UNL     1      -3.950   1.254  -0.222  1.00  0.00    -0.184 NA
HETATM    9  C   UNL     1      -3.340   0.118  -0.123  1.00  0.00     0.150 C 
BRANCH   9  10
HETATM   10  C   UNL     1      -1.863   0.067  -0.129  1.00  0.00    -0.017 A 
HETATM   11  C   UNL     1      -1.122   1.252  -0.182  1.00  0.00     0.013 A 
HETATM   12  C   UNL     1       0.271   1.206  -0.160  1.00  0.00     0.007 A 
HETATM   13  C   UNL     1       0.936  -0.022  -0.085  1.00  0.00    -0.062 A 
HETATM   14  C   UNL     1       2.435  -0.078  -0.071  1.00  0.00     0.048 C 
HETATM   15  C   UNL     1       0.185  -1.206  -0.032  1.00  0.00     0.007 A 
HETATM   16  C   UNL     1      -1.213  -1.165  -0.053  1.00  0.00     0.013 A 
ENDBRANCH   9  10
ENDBRANCH   6   8
ENDBRANCH   1   6
BRANCH   3  17
HETATM   17  C   UNL     1      -6.334   5.779  -1.376  1.00  0.00    -0.007 A 
HETATM   18  C   UNL     1      -5.675   5.795  -2.615  1.00  0.00     0.015 A 
HETATM   19  C   UNL     1      -5.455   6.996  -3.293  1.00  0.00     0.020 A 
HETATM   20  C   UNL     1      -5.884   8.193  -2.728  1.00  0.00     0.011 A 
HETATM   21 BR   UNL     1      -5.579   9.822  -3.637  1.00  0.00    -0.051 Br
HETATM   22  C   UNL     1      -6.531   8.198  -1.493  1.00  0.00     0.020 A 
HETATM   23  C   UNL     1      -6.757   6.993  -0.818  1.00  0.00     0.015 A 
ENDBRANCH   3  17
TORSDOF 4
