REMARK  5 active torsions:
REMARK  status: ('A' for Active; 'I' for Inactive)
REMARK    1  A    between atoms: O_2  and  C_3 
REMARK    2  A    between atoms: C_6  and  C_7 
REMARK    3  A    between atoms: C_8  and  C_9 
REMARK    4  A    between atoms: C_9  and  C_11 
REMARK    5  A    between atoms: C_14  and  O_15 
ROOT
HETATM    1  C   UNL     1       5.377   2.335   4.324  1.00  0.00     0.015 C 
HETATM    2  C   UNL     1       4.977   2.337   5.607  1.00  0.00     0.056 C 
ENDROOT
BRANCH   2   3
HETATM    3  C   UNL     1       5.803   2.990   6.659  1.00  0.00     0.182 C 
HETATM    4  O   UNL     1       6.664   3.820   6.389  1.00  0.00    -0.288 OA
BRANCH   3   5
HETATM    5  C   UNL     1       5.507   2.637   8.075  1.00  0.00     0.014 A 
HETATM    6  C   UNL     1       5.022   1.371   8.437  1.00  0.00     0.018 A 
HETATM    7  C   UNL     1       4.766   1.070   9.779  1.00  0.00     0.037 A 
HETATM    8  C   UNL     1       5.004   2.034  10.754  1.00  0.00     0.065 A 
HETATM    9  C   UNL     1       5.499   3.287  10.411  1.00  0.00     0.037 A 
HETATM   10  C   UNL     1       5.756   3.590   9.072  1.00  0.00     0.018 A 
BRANCH   8  11
HETATM   11  O   UNL     1       4.767   1.782  12.072  1.00  0.00    -0.361 OA
HETATM   12  H   UNL     1       4.428   0.877  12.165  1.00  0.00     0.217 HD
ENDBRANCH   8  11
ENDBRANCH   3   5
ENDBRANCH   2   3
BRANCH   1  13
HETATM   13  C   UNL     1       4.597   1.738   3.228  1.00  0.00    -0.036 A 
HETATM   14  C   UNL     1       3.198   1.720   3.236  1.00  0.00     0.014 A 
HETATM   15  C   UNL     1       2.475   1.191   2.160  1.00  0.00     0.037 A 
HETATM   16  C   UNL     1       3.141   0.671   1.054  1.00  0.00     0.068 A 
HETATM   17  C   UNL     1       4.537   0.694   1.031  1.00  0.00     0.037 A 
HETATM   18  C   UNL     1       5.262   1.227   2.106  1.00  0.00     0.014 A 
BRANCH  16  19
HETATM   19  O   UNL     1       2.546   0.123  -0.050  1.00  0.00    -0.356 OA
HETATM   20  C   UNL     1       1.123   0.078  -0.051  1.00  0.00     0.210 C 
ENDBRANCH  16  19
ENDBRANCH   1  13
TORSDOF 5
