REMARK  9 active torsions:
REMARK  status: ('A' for Active; 'I' for Inactive)
REMARK    1  A    between atoms: N_2  and  C_4 
REMARK    2  A    between atoms: C_7  and  S_8 
REMARK    3  A    between atoms: S_8  and  N_11 
REMARK    4  A    between atoms: N_11  and  C_12 
REMARK    5  A    between atoms: C_15  and  C_16 
REMARK    6  A    between atoms: C_19  and  C_20 
REMARK    7  A    between atoms: C_20  and  C_21 
REMARK    8  A    between atoms: C_20  and  C_31 
REMARK    9  A    between atoms: C_44  and  N_45 
ROOT
HETATM    1  C   UNL     1       6.035  -2.420  11.024  1.00  0.00     0.002 C 
HETATM    2  C   UNL     1       5.874  -1.351  11.916  1.00  0.00     0.015 C 
HETATM    3  C   UNL     1       6.606  -1.322  13.116  1.00  0.00     0.009 C 
HETATM    4  C   UNL     1       7.513  -2.350  13.436  1.00  0.00    -0.045 C 
HETATM    5  C   UNL     1       7.542  -3.482  12.614  1.00  0.00     0.009 C 
HETATM    6  C   UNL     1       6.805  -3.517  11.439  1.00  0.00     0.015 C 
ENDROOT
BRANCH   4   7
HETATM    7  C   UNL     1       8.470  -2.180  14.597  1.00  0.00     0.089 C 
BRANCH   7   8
HETATM    8  C   UNL     1       8.643  -3.535  15.272  1.00  0.00    -0.017 C 
HETATM    9  C   UNL     1       9.830  -4.242  15.435  1.00  0.00     0.097 C 
HETATM   10  N   UNL     1       9.514  -5.393  16.094  1.00  0.00    -0.365 N 
HETATM   11  C   UNL     1       8.204  -5.682  15.825  1.00  0.00     0.043 C 
HETATM   12  H   UNL     1      10.098  -5.880  16.761  1.00  0.00     0.165 HD
HETATM   13  C   UNL     1       7.514  -6.887  15.685  1.00  0.00     0.031 C 
HETATM   14  C   UNL     1       7.598  -4.432  15.732  1.00  0.00     0.001 C 
HETATM   15  C   UNL     1       6.125  -6.796  15.585  1.00  0.00     0.021 C 
HETATM   16  C   UNL     1       5.482  -5.573  15.781  1.00  0.00     0.011 C 
HETATM   17 BR   UNL     1       3.590  -5.530  15.841  1.00  0.00    -0.051 Br
HETATM   18  C   UNL     1       6.199  -4.371  15.872  1.00  0.00     0.033 C 
ENDBRANCH   7   8
BRANCH   7  19
HETATM   19  C   UNL     1       9.769  -1.556  14.078  1.00  0.00    -0.017 C 
HETATM   20  C   UNL     1      10.653  -0.961  14.975  1.00  0.00     0.097 C 
HETATM   21  N   UNL     1      11.846  -0.876  14.320  1.00  0.00    -0.365 N 
HETATM   22  C   UNL     1      11.545  -0.572  13.019  1.00  0.00     0.043 C 
HETATM   23  H   UNL     1      12.631  -1.470  14.552  1.00  0.00     0.165 HD
HETATM   24  C   UNL     1      12.261   0.189  12.093  1.00  0.00     0.031 C 
HETATM   25  C   UNL     1      10.347  -1.252  12.761  1.00  0.00     0.001 C 
HETATM   26  C   UNL     1      11.779   0.207  10.791  1.00  0.00     0.021 C 
HETATM   27  C   UNL     1      10.718  -0.623  10.435  1.00  0.00     0.011 C 
HETATM   28 BR   UNL     1      10.209  -0.692   8.610  1.00  0.00    -0.051 Br
HETATM   29  C   UNL     1      10.005  -1.375  11.392  1.00  0.00     0.033 C 
ENDBRANCH   7  19
ENDBRANCH   4   7
BRANCH   1  30
HETATM   30  C   UNL     1       5.580  -2.450   9.626  1.00  0.00     0.133 A 
HETATM   31  N   UNL     1       6.154  -3.234   8.726  1.00  0.00    -0.140 NA
HETATM   32  N   UNL     1       5.566  -3.167   7.494  1.00  0.00    -0.128 NA
HETATM   33  C   UNL     1       4.601  -2.285   7.478  1.00  0.00     0.183 A 
HETATM   34  S   UNL     1       4.287  -1.519   8.976  1.00  0.00    -0.033 SA
BRANCH  33  35
HETATM   35  N   UNL     1       3.800  -2.217   6.301  1.00  0.00    -0.157 NA
HETATM   36  H   UNL     1       4.088  -3.055   5.787  1.00  0.00     0.148 HD
BRANCH  35  37
HETATM   37  S   UNL     1       4.305  -0.935   5.307  1.00  0.00     0.249 S 
HETATM   38  O   UNL     1       5.199  -1.517   4.331  1.00  0.00    -0.205 OA
HETATM   39  O   UNL     1       4.621   0.208   6.131  1.00  0.00    -0.205 OA
BRANCH  37  40
HETATM   40  C   UNL     1       2.830  -0.519   4.405  1.00  0.00     0.108 A 
HETATM   41  C   UNL     1       1.617  -1.163   4.692  1.00  0.00     0.030 A 
HETATM   42  C   UNL     1       0.468  -0.863   3.967  1.00  0.00     0.038 A 
HETATM   43  C   UNL     1       0.518   0.102   2.959  1.00  0.00     0.105 A 
HETATM   44  C   UNL     1       1.720   0.736   2.624  1.00  0.00     0.073 A 
HETATM   45  C   UNL     1       2.872   0.411   3.358  1.00  0.00     0.128 A 
BRANCH  43  46
HETATM   46  N   UNL     1      -0.705   0.460   2.192  1.00  0.00    -0.116 N 
HETATM   47  O   UNL     1      -1.710  -0.243   2.438  1.00  0.00    -0.532 OA
HETATM   48  O   UNL     1      -0.639   1.381   1.395  1.00  0.00    -0.532 OA
ENDBRANCH  43  46
BRANCH  45  49
HETATM   49  N   UNL     1       4.109   1.057   2.947  1.00  0.00    -0.114 N 
HETATM   50  O   UNL     1       4.679   1.770   3.776  1.00  0.00    -0.532 OA
HETATM   51  O   UNL     1       4.433   0.919   1.761  1.00  0.00    -0.532 OA
ENDBRANCH  45  49
ENDBRANCH  37  40
ENDBRANCH  35  37
ENDBRANCH  33  35
ENDBRANCH   1  30
TORSDOF 9
