REMARK  3 active torsions:
REMARK  status: ('A' for Active; 'I' for Inactive)
REMARK       I    between atoms: N_2  and  C_3 
REMARK    1  A    between atoms: C_3  and  C_5 
REMARK    2  A    between atoms: N_7  and  C_8 
REMARK    3  A    between atoms: C_13  and  N_14 
REMARK       I    between atoms: N_17  and  C_18 
ROOT
HETATM    1  C   UNL     1       4.574   0.796   0.898  1.00  0.00     0.098 C 
HETATM    2  C   UNL     1       5.308   0.805  -0.228  1.00  0.00     0.113 C 
HETATM    3  N   UNL     1       6.694   0.741  -0.295  1.00  0.00    -0.350 N 
HETATM    4  C   UNL     1       7.441   0.866   0.907  1.00  0.00     0.051 A 
HETATM    5  C   UNL     1       8.828   1.045   0.921  1.00  0.00     0.063 A 
HETATM    6  C   UNL     1       9.574   1.152   2.108  1.00  0.00     0.071 A 
HETATM    7  C   UNL     1       8.860   1.085   3.315  1.00  0.00     0.143 A 
HETATM    8  F   UNL     1       9.501   1.158   4.491  1.00  0.00    -0.204 F 
HETATM    9  C   UNL     1       7.482   0.925   3.346  1.00  0.00     0.062 A 
HETATM   10  C   UNL     1       6.780   0.826   2.145  1.00  0.00     0.045 A 
HETATM   11  C   UNL     1       5.308   0.700   2.183  1.00  0.00     0.201 C 
HETATM   12  O   UNL     1       4.727   0.542   3.254  1.00  0.00    -0.286 OA
ENDROOT
BRANCH   6  13
HETATM   13  N   UNL     1      10.933   1.372   2.031  1.00  0.00    -0.375 N 
HETATM   14  C   UNL     1      11.661   2.117   3.068  1.00  0.00     0.143 C 
HETATM   15  C   UNL     1      12.654   3.074   2.379  1.00  0.00     0.145 C 
HETATM   16  N   UNL     1      13.517   2.369   1.416  1.00  0.00    -0.349 N 
HETATM   17  C   UNL     1      14.881   2.554   1.498  1.00  0.00     0.215 C 
HETATM   18  C   UNL     1      12.776   1.569   0.426  1.00  0.00     0.145 C 
HETATM   19  C   UNL     1      15.798   1.848   0.532  1.00  0.00     0.117 C 
HETATM   20  O   UNL     1      15.387   3.277   2.360  1.00  0.00    -0.274 OA
HETATM   21  C   UNL     1      11.786   0.608   1.110  1.00  0.00     0.143 C 
ENDBRANCH   6  13
BRANCH   3  22
HETATM   22  C   UNL     1       7.334   0.753  -1.630  1.00  0.00     0.090 A 
HETATM   23  C   UNL     1       7.111  -0.386  -2.599  1.00  0.00     0.028 A 
HETATM   24  C   UNL     1       8.472  -0.165  -2.025  1.00  0.00     0.028 A 
ENDBRANCH   3  22
BRANCH   1  25
HETATM   25  C   UNL     1       3.088   0.876   0.800  1.00  0.00     0.256 C 
HETATM   26  N   UNL     1       2.409   0.484   1.929  1.00  0.00    -0.361 N 
HETATM   27  C   UNL     1       0.975   0.538   2.001  1.00  0.00     0.149 C 
HETATM   28  H   UNL     1       2.943   0.285   2.777  1.00  0.00     0.162 HD
HETATM   29  O   UNL     1       2.533   1.266  -0.218  1.00  0.00    -0.267 OA
ENDBRANCH   1  25
TORSDOF 3
