REMARK  10 active torsions:
REMARK  status: ('A' for Active; 'I' for Inactive)
REMARK    1  A    between atoms: N_1  and  N_2 
REMARK       I    between atoms: N_2  and  C_3 
REMARK    2  A    between atoms: C_3  and  C_5 
REMARK    3  A    between atoms: N_7  and  C_8 
REMARK    4  A    between atoms: C_13  and  N_14 
REMARK    5  A    between atoms: N_17  and  C_18 
REMARK    6  A    between atoms: C_18  and  C_19 
REMARK       I    between atoms: C_19  and  N_21 
REMARK    7  A    between atoms: N_21  and  C_22 
REMARK    8  A    between atoms: C_25  and  C_26 
REMARK    9  A    between atoms: C_26  and  C_28 
REMARK   10  A    between atoms: C_29  and  C_30 
ROOT
HETATM    1  N   UNL     1      11.029  -2.221   1.472  1.00  0.00    -0.375 N 
HETATM    2  C   UNL     1      11.558  -1.390   2.565  1.00  0.00     0.153 C 
HETATM    3  C   UNL     1      12.698  -0.482   2.046  1.00  0.00     0.292 C 
HETATM    4  N   UNL     1      13.805  -1.180   1.326  1.00  0.00     0.100 N 
HETATM    5  C   UNL     1      13.187  -2.006   0.254  1.00  0.00     0.292 C 
HETATM    6  C   UNL     1      12.034  -2.951   0.690  1.00  0.00     0.153 C 
ENDROOT
BRANCH   1   7
HETATM    7  C   UNL     1       9.684  -2.278   1.143  1.00  0.00     0.071 A 
HETATM    8  C   UNL     1       9.144  -3.437   0.522  1.00  0.00     0.063 A 
HETATM    9  C   UNL     1       7.815  -3.550   0.076  1.00  0.00     0.051 A 
HETATM   10  N   UNL     1       7.268  -4.705  -0.611  1.00  0.00    -0.350 N 
HETATM   11  C   UNL     1       7.017  -2.435   0.312  1.00  0.00     0.045 A 
HETATM   12  C   UNL     1       6.006  -4.656  -1.066  1.00  0.00     0.113 A 
HETATM   13  C   UNL     1       5.167  -3.596  -0.939  1.00  0.00     0.099 A 
HETATM   14  C   UNL     1       5.671  -2.461  -0.205  1.00  0.00     0.201 A 
HETATM   15  O   UNL     1       4.904  -1.437  -0.058  1.00  0.00    -0.286 OA
HETATM   16  C   UNL     1       7.466  -1.287   0.968  1.00  0.00     0.062 A 
HETATM   17  C   UNL     1       8.791  -1.217   1.363  1.00  0.00     0.143 A 
HETATM   18  F   UNL     1       9.201  -0.052   1.887  1.00  0.00    -0.204 F 
BRANCH  10  19
HETATM   19  C   UNL     1       8.140  -5.846  -0.750  1.00  0.00     0.090 A 
HETATM   20  C   UNL     1       8.321  -7.340  -0.882  1.00  0.00     0.028 A 
HETATM   21  C   UNL     1       8.867  -6.624   0.348  1.00  0.00     0.028 A 
ENDBRANCH  10  19
BRANCH  13  22
HETATM   22  C   UNL     1       3.767  -3.573  -1.477  1.00  0.00     0.271 C 
HETATM   23  N   UNL     1       2.996  -2.413  -1.177  1.00  0.00    -0.290 N 
HETATM   24  H   UNL     1       3.381  -1.627  -0.646  1.00  0.00     0.183 HD
HETATM   25  O   UNL     1       3.307  -4.532  -2.096  1.00  0.00    -0.266 OA
BRANCH  23  26
HETATM   26  N   UNL     1       1.643  -2.317  -1.609  1.00  0.00    -0.247 NA
HETATM   27  H   UNL     1       1.230  -1.434  -1.316  1.00  0.00     0.143 HD
HETATM   28  H   UNL     1       1.107  -3.089  -1.203  1.00  0.00     0.143 HD
ENDBRANCH  23  26
ENDBRANCH  13  22
ENDBRANCH   1   7
BRANCH   4  29
HETATM   29  C   UNL     1      14.584  -2.062   2.221  1.00  0.00     0.375 C 
BRANCH  29  30
HETATM   30  C   UNL     1      15.218  -1.293   3.371  1.00  0.00     0.250 C 
HETATM   31  O   UNL     1      14.939  -1.613   4.522  1.00  0.00    -0.271 OA
HETATM   32  N   UNL     1      16.059  -0.263   2.975  1.00  0.00    -0.326 N 
HETATM   33  H   UNL     1      15.959   0.037   2.010  1.00  0.00     0.169 HD
BRANCH  32  34
HETATM   34  C   UNL     1      16.772   0.567   3.866  1.00  0.00     0.034 A 
HETATM   35  C   UNL     1      16.989   0.202   5.196  1.00  0.00     0.030 A 
HETATM   36  C   UNL     1      17.559   1.089   6.104  1.00  0.00     0.018 A 
HETATM   37  C   UNL     1      17.953   2.359   5.699  1.00  0.00     0.014 A 
HETATM   38  C   UNL     1      17.847   2.701   4.340  1.00  0.00     0.018 A 
HETATM   39  C   UNL     1      17.263   1.803   3.428  1.00  0.00     0.030 A 
BRANCH  37  40
HETATM   40  C   UNL     1      18.436   3.280   6.767  1.00  0.00     0.182 C 
HETATM   41  O   UNL     1      18.965   2.831   7.781  1.00  0.00    -0.288 OA
BRANCH  40  42
HETATM   42  C   UNL     1      18.183   4.730   6.598  1.00  0.00     0.056 C 
HETATM   43  C   UNL     1      18.546   5.633   7.520  1.00  0.00     0.015 C 
BRANCH  43  44
HETATM   44  C   UNL     1      18.391   7.083   7.325  1.00  0.00    -0.036 C 
HETATM   45  C   UNL     1      17.389   7.618   6.497  1.00  0.00     0.011 C 
HETATM   46  C   UNL     1      17.417   8.925   6.084  1.00  0.00     0.001 C 
HETATM   47  C   UNL     1      18.292   9.796   6.661  1.00  0.00     0.000 C 
HETATM   48  C   UNL     1      19.088   9.328   7.686  1.00  0.00     0.001 C 
HETATM   49  C   UNL     1      19.252   7.984   7.906  1.00  0.00     0.011 C 
ENDBRANCH  43  44
ENDBRANCH  40  42
ENDBRANCH  37  40
ENDBRANCH  32  34
ENDBRANCH  29  30
ENDBRANCH   4  29
TORSDOF 10
