REMARK  2 active torsions:
REMARK  status: ('A' for Active; 'I' for Inactive)
REMARK       I    between atoms: N_2  and  C_3 
REMARK    1  A    between atoms: C_3  and  C_5 
REMARK    2  A    between atoms: C_10  and  N_11 
ROOT
HETATM    1  C   UNL     1       4.577  -1.159   0.599  1.00  0.00     0.098 A 
HETATM    2  C   UNL     1       5.264  -2.293   0.387  1.00  0.00     0.113 A 
HETATM    3  N   UNL     1       6.638  -2.422   0.388  1.00  0.00    -0.346 N 
HETATM    4  C   UNL     1       7.457  -1.294   0.637  1.00  0.00     0.085 A 
HETATM    5  C   UNL     1       8.876  -1.379   0.662  1.00  0.00     0.126 A 
HETATM    6  C   UNL     1       9.695  -0.240   0.862  1.00  0.00     0.105 A 
HETATM    7  C   UNL     1       9.008   0.975   1.108  1.00  0.00     0.146 A 
HETATM    8  F   UNL     1       9.698   2.086   1.418  1.00  0.00    -0.204 F 
HETATM    9  C   UNL     1       7.624   1.082   1.113  1.00  0.00     0.062 A 
HETATM   10  C   UNL     1       6.852  -0.050   0.867  1.00  0.00     0.048 A 
HETATM   11  C   UNL     1       5.373   0.068   0.850  1.00  0.00     0.201 A 
HETATM   12  O   UNL     1       4.835   1.160   1.027  1.00  0.00    -0.286 OA
HETATM   13  O   UNL     1       9.498  -2.596   0.433  1.00  0.00    -0.344 OA
HETATM   14  C   UNL     1       8.669  -3.709   0.781  1.00  0.00     0.201 C 
HETATM   15  C   UNL     1       7.346  -3.657   0.021  1.00  0.00     0.110 C 
HETATM   16  C   UNL     1       7.561  -3.710  -1.495  1.00  0.00     0.035 C 
ENDROOT
BRANCH   6  17
HETATM   17  N   UNL     1      11.087  -0.258   0.904  1.00  0.00    -0.373 N 
HETATM   18  C   UNL     1      11.864  -1.482   1.146  1.00  0.00     0.153 C 
HETATM   19  C   UNL     1      13.189  -1.116   1.854  1.00  0.00     0.291 C 
HETATM   20  N   UNL     1      13.989  -0.115   1.112  1.00  0.00     0.087 N 
HETATM   21  C   UNL     1      15.187   0.234   1.869  1.00  0.00     0.310 C 
HETATM   22  C   UNL     1      13.155   1.087   0.869  1.00  0.00     0.291 C 
HETATM   23  C   UNL     1      11.840   0.752   0.127  1.00  0.00     0.153 C 
ENDBRANCH   6  17
BRANCH   1  24
HETATM   24  C   UNL     1       3.091  -1.218   0.551  1.00  0.00     0.256 C 
HETATM   25  N   UNL     1       2.447  -0.028   0.766  1.00  0.00    -0.361 N 
HETATM   26  C   UNL     1       1.016   0.075   0.706  1.00  0.00     0.149 C 
HETATM   27  H   UNL     1       3.005   0.805   0.962  1.00  0.00     0.162 HD
HETATM   28  O   UNL     1       2.495  -2.267   0.327  1.00  0.00    -0.267 OA
ENDBRANCH   1  24
TORSDOF 2
