REMARK  4 active torsions:
REMARK  status: ('A' for Active; 'I' for Inactive)
REMARK       I    between atoms: N_2  and  C_3 
REMARK    1  A    between atoms: C_3  and  C_5 
REMARK    2  A    between atoms: N_7  and  C_8 
REMARK    3  A    between atoms: C_13  and  N_14 
REMARK       I    between atoms: N_17  and  C_18 
REMARK    4  A    between atoms: C_18  and  C_20 
ROOT
HETATM    1  C   UNL     1       4.603   0.221   1.152  1.00  0.00     0.098 C 
HETATM    2  C   UNL     1       5.335   0.759   0.168  1.00  0.00     0.113 C 
HETATM    3  N   UNL     1       6.720   0.728   0.082  1.00  0.00    -0.350 N 
HETATM    4  C   UNL     1       7.469   0.266   1.196  1.00  0.00     0.051 A 
HETATM    5  C   UNL     1       8.858   0.412   1.285  1.00  0.00     0.063 A 
HETATM    6  C   UNL     1       9.604  -0.050   2.380  1.00  0.00     0.071 A 
HETATM    7  C   UNL     1       8.890  -0.672   3.420  1.00  0.00     0.143 A 
HETATM    8  F   UNL     1       9.529  -1.153   4.498  1.00  0.00    -0.204 F 
HETATM    9  C   UNL     1       7.510  -0.817   3.381  1.00  0.00     0.062 A 
HETATM   10  C   UNL     1       6.806  -0.343   2.274  1.00  0.00     0.045 A 
HETATM   11  C   UNL     1       5.332  -0.456   2.253  1.00  0.00     0.201 C 
HETATM   12  O   UNL     1       4.747  -1.081   3.135  1.00  0.00    -0.286 OA
ENDROOT
BRANCH   6  13
HETATM   13  N   UNL     1      10.960   0.215   2.422  1.00  0.00    -0.375 N 
HETATM   14  C   UNL     1      11.651   0.327   3.703  1.00  0.00     0.143 C 
HETATM   15  C   UNL     1      12.681   1.453   3.602  1.00  0.00     0.146 C 
HETATM   16  N   UNL     1      13.593   1.305   2.456  1.00  0.00    -0.345 N 
HETATM   17  C   UNL     1      14.970   1.535   2.469  1.00  0.00     0.253 C 
HETATM   18  C   UNL     1      12.926   1.032   1.170  1.00  0.00     0.146 C 
HETATM   19  O   UNL     1      15.682   1.325   1.488  1.00  0.00    -0.267 OA
HETATM   20  C   UNL     1      11.850  -0.069   1.280  1.00  0.00     0.143 C 
BRANCH  17  21
HETATM   21  C   UNL     1      15.639   1.993   3.722  1.00  0.00     0.032 C 
HETATM   22  C   UNL     1      16.869   1.423   4.069  1.00  0.00     0.017 C 
HETATM   23  C   UNL     1      17.466   1.736   5.293  1.00  0.00     0.001 C 
HETATM   24  C   UNL     1      16.828   2.604   6.180  1.00  0.00     0.000 C 
HETATM   25  C   UNL     1      15.637   3.224   5.812  1.00  0.00     0.001 C 
HETATM   26  C   UNL     1      15.076   2.962   4.562  1.00  0.00     0.017 C 
ENDBRANCH  17  21
ENDBRANCH   6  13
BRANCH   3  27
HETATM   27  C   UNL     1       7.354   1.367  -1.089  1.00  0.00     0.090 A 
HETATM   28  C   UNL     1       7.113   0.828  -2.480  1.00  0.00     0.028 A 
HETATM   29  C   UNL     1       8.476   0.729  -1.876  1.00  0.00     0.028 A 
ENDBRANCH   3  27
BRANCH   1  30
HETATM   30  C   UNL     1       3.118   0.338   1.089  1.00  0.00     0.256 C 
HETATM   31  N   UNL     1       2.434  -0.479   1.953  1.00  0.00    -0.361 N 
HETATM   32  C   UNL     1       1.002  -0.454   2.056  1.00  0.00     0.149 C 
HETATM   33  H   UNL     1       2.968  -1.023   2.632  1.00  0.00     0.162 HD
HETATM   34  O   UNL     1       2.564   1.117   0.318  1.00  0.00    -0.267 OA
ENDBRANCH   1  30
TORSDOF 4
