REMARK  13 active torsions:
REMARK  status: ('A' for Active; 'I' for Inactive)
REMARK    1  A    between atoms: O_2  and  C_3 
REMARK    2  A    between atoms: C_5  and  C_6 
REMARK    3  A    between atoms: C_7  and  C_8 
REMARK    4  A    between atoms: C_8  and  C_10 
REMARK    5  A    between atoms: C_13  and  N_14 
REMARK       I    between atoms: N_14  and  C_15 
REMARK    6  A    between atoms: C_15  and  C_17 
REMARK    7  A    between atoms: C_17  and  N_18 
REMARK    8  A    between atoms: N_21  and  C_22 
REMARK    9  A    between atoms: C_31  and  C_32 
REMARK       I    between atoms: C_32  and  N_34 
REMARK   10  A    between atoms: N_34  and  N_35 
REMARK   11  A    between atoms: N_37  and  C_38 
REMARK   12  A    between atoms: C_46  and  O_47 
REMARK   13  A    between atoms: C_49  and  O_50 
ROOT
HETATM    1  N   UNL     1      -4.987  -7.171  -4.762  1.00  0.00     0.100 N 
HETATM    2  C   UNL     1      -6.411  -7.338  -5.156  1.00  0.00     0.292 C 
HETATM    3  C   UNL     1      -6.769  -8.747  -5.679  1.00  0.00     0.153 C 
HETATM    4  N   UNL     1      -5.870  -9.126  -6.779  1.00  0.00    -0.375 N 
HETATM    5  C   UNL     1      -4.430  -8.943  -6.571  1.00  0.00     0.153 C 
HETATM    6  C   UNL     1      -4.167  -7.538  -5.957  1.00  0.00     0.292 C 
ENDROOT
BRANCH   1   7
HETATM    7  C   UNL     1      -4.685  -8.022  -3.586  1.00  0.00     0.375 C 
BRANCH   7   8
HETATM    8  C   UNL     1      -3.215  -7.923  -3.166  1.00  0.00     0.250 C 
HETATM    9  N   UNL     1      -2.939  -6.979  -2.184  1.00  0.00    -0.326 N 
HETATM   10  H   UNL     1      -3.715  -6.513  -1.732  1.00  0.00     0.169 HD
HETATM   11  O   UNL     1      -2.395  -8.671  -3.688  1.00  0.00    -0.271 OA
BRANCH   9  12
HETATM   12  C   UNL     1      -1.653  -6.673  -1.686  1.00  0.00     0.034 A 
HETATM   13  C   UNL     1      -0.482  -7.072  -2.327  1.00  0.00     0.030 A 
HETATM   14  C   UNL     1       0.767  -6.747  -1.803  1.00  0.00     0.018 A 
HETATM   15  C   UNL     1       0.868  -5.989  -0.633  1.00  0.00     0.014 A 
HETATM   16  C   UNL     1      -0.299  -5.601   0.031  1.00  0.00     0.018 A 
HETATM   17  C   UNL     1      -1.556  -5.928  -0.504  1.00  0.00     0.030 A 
BRANCH  15  18
HETATM   18  C   UNL     1       2.206  -5.601  -0.103  1.00  0.00     0.182 C 
HETATM   19  O   UNL     1       2.394  -5.451   1.097  1.00  0.00    -0.288 OA
BRANCH  18  20
HETATM   20  C   UNL     1       3.271  -5.358  -1.120  1.00  0.00     0.056 C 
HETATM   21  C   UNL     1       4.572  -5.332  -0.791  1.00  0.00     0.015 C 
BRANCH  21  22
HETATM   22  C   UNL     1       5.652  -5.121  -1.774  1.00  0.00    -0.031 A 
HETATM   23  C   UNL     1       5.479  -4.303  -2.899  1.00  0.00     0.051 A 
HETATM   24  C   UNL     1       6.515  -4.097  -3.823  1.00  0.00     0.105 A 
HETATM   25  C   UNL     1       7.767  -4.694  -3.603  1.00  0.00     0.135 A 
HETATM   26  C   UNL     1       7.937  -5.554  -2.498  1.00  0.00     0.105 A 
HETATM   27  C   UNL     1       6.892  -5.736  -1.578  1.00  0.00     0.051 A 
BRANCH  24  28
HETATM   28  O   UNL     1       6.333  -3.409  -4.994  1.00  0.00    -0.353 OA
HETATM   29  C   UNL     1       5.269  -2.467  -5.035  1.00  0.00     0.210 C 
ENDBRANCH  24  28
BRANCH  25  30
HETATM   30  O   UNL     1       8.851  -4.569  -4.441  1.00  0.00    -0.351 OA
HETATM   31  C   UNL     1       9.066  -3.293  -5.037  1.00  0.00     0.210 C 
ENDBRANCH  25  30
BRANCH  26  32
HETATM   32  O   UNL     1       9.169  -6.152  -2.357  1.00  0.00    -0.353 OA
HETATM   33  C   UNL     1       9.155  -7.447  -1.763  1.00  0.00     0.210 C 
ENDBRANCH  26  32
ENDBRANCH  21  22
ENDBRANCH  18  20
ENDBRANCH  15  18
ENDBRANCH   9  12
ENDBRANCH   7   8
ENDBRANCH   1   7
BRANCH   4  34
HETATM   34  C   UNL     1      -6.389  -9.491  -8.008  1.00  0.00     0.071 C 
HETATM   35  C   UNL     1      -7.494  -8.796  -8.513  1.00  0.00     0.062 C 
HETATM   36  C   UNL     1      -8.176  -9.212  -9.653  1.00  0.00     0.047 C 
HETATM   37  C   UNL     1      -7.773 -10.409 -10.275  1.00  0.00     0.041 C 
HETATM   38  N   UNL     1      -9.222  -8.428 -10.230  1.00  0.00    -0.367 N 
HETATM   39  C   UNL     1      -6.582 -11.030  -9.905  1.00  0.00     0.062 C 
HETATM   40  C   UNL     1      -8.703 -11.014 -11.282  1.00  0.00     0.183 C 
HETATM   41  C   UNL     1      -5.890 -10.549  -8.789  1.00  0.00     0.143 C 
HETATM   42  F   UNL     1      -4.755 -11.175  -8.435  1.00  0.00    -0.204 F 
HETATM   43  O   UNL     1      -8.420 -12.034 -11.894  1.00  0.00    -0.291 OA
HETATM   44  C   UNL     1      -9.996 -10.284 -11.496  1.00  0.00     0.155 C 
HETATM   45  C   UNL     1      -9.793  -8.952 -11.411  1.00  0.00     0.137 C 
BRANCH  44  46
HETATM   46  C   UNL     1     -11.253 -10.751 -10.825  1.00  0.00     0.252 C 
HETATM   47  O   UNL     1     -11.324 -11.790 -10.177  1.00  0.00    -0.271 OA
HETATM   48  N   UNL     1     -12.338  -9.889 -11.023  1.00  0.00    -0.293 N 
HETATM   49  H   UNL     1     -12.188  -8.980 -11.455  1.00  0.00     0.183 HD
BRANCH  48  50
HETATM   50  N   UNL     1     -13.562 -10.105 -10.361  1.00  0.00    -0.247 NA
HETATM   51  H   UNL     1     -13.555 -11.077 -10.027  1.00  0.00     0.143 HD
HETATM   52  H   UNL     1     -14.312 -10.062 -11.053  1.00  0.00     0.143 HD
ENDBRANCH  48  50
ENDBRANCH  44  46
BRANCH  38  53
HETATM   53  C   UNL     1     -10.165  -7.730  -9.329  1.00  0.00     0.085 A 
HETATM   54  C   UNL     1     -10.944  -6.535  -9.814  1.00  0.00     0.027 A 
HETATM   55  C   UNL     1      -9.877  -6.358  -8.778  1.00  0.00     0.027 A 
ENDBRANCH  38  53
ENDBRANCH   4  34
TORSDOF 13
