REMARK  4 active torsions:
REMARK  status: ('A' for Active; 'I' for Inactive)
REMARK    1  A    between atoms: C_2  and  C_3 
REMARK    2  A    between atoms: C_6  and  O_7 
REMARK    3  A    between atoms: C_8  and  O_9 
REMARK    4  A    between atoms: C_10  and  O_11 
ROOT
HETATM    1  C   UNL     1       2.998  -0.189  -1.404  1.00  0.00    -0.022 A 
HETATM    2  C   UNL     1       3.295   0.962  -2.157  1.00  0.00     0.013 A 
HETATM    3  C   UNL     1       3.739   0.865  -3.482  1.00  0.00     0.040 A 
HETATM    4  C   UNL     1       3.884  -0.391  -4.061  1.00  0.00     0.101 A 
HETATM    5  C   UNL     1       3.596  -1.535  -3.326  1.00  0.00     0.133 A 
HETATM    6  C   UNL     1       3.155  -1.437  -2.011  1.00  0.00     0.107 A 
ENDROOT
BRANCH   1   7
HETATM    7  C   UNL     1       2.470  -0.062   0.001  1.00  0.00     0.037 C 
HETATM    8  C   UNL     1       0.950  -0.004   0.016  1.00  0.00     0.010 C 
ENDBRANCH   1   7
BRANCH   6   9
HETATM    9  O   UNL     1       2.866  -2.583  -1.323  1.00  0.00    -0.357 OA
HETATM   10  H   UNL     1       3.054  -3.302  -1.958  1.00  0.00     0.217 HD
ENDBRANCH   6   9
BRANCH   5  11
HETATM   11  O   UNL     1       3.732  -2.776  -3.890  1.00  0.00    -0.356 OA
HETATM   12  H   UNL     1       4.039  -2.589  -4.801  1.00  0.00     0.218 HD
ENDBRANCH   5  11
BRANCH   4  13
HETATM   13  O   UNL     1       4.301  -0.551  -5.353  1.00  0.00    -0.358 OA
HETATM   14  H   UNL     1       4.439   0.332  -5.736  1.00  0.00     0.217 HD
ENDBRANCH   4  13
TORSDOF 4
