REMARK  3 active torsions:
REMARK  status: ('A' for Active; 'I' for Inactive)
REMARK    1  A    between atoms: C_6  and  N_7 
REMARK    2  A    between atoms: C_20  and  C_21 
REMARK       I    between atoms: C_21  and  N_23 
REMARK    3  A    between atoms: N_23  and  O_24 
ROOT
HETATM    1  C   UNL     1       3.101   0.501  -1.371  1.00  0.00     0.035 C 
HETATM    2  C   UNL     1       2.750   0.231   0.096  1.00  0.00     0.110 C 
HETATM    3  C   UNL     1       2.445   1.523   0.850  1.00  0.00     0.201 C 
HETATM    4  O   UNL     1       1.337   2.205   0.258  1.00  0.00    -0.344 OA
HETATM    5  C   UNL     1       0.208   1.415   0.148  1.00  0.00     0.126 A 
HETATM    6  C   UNL     1      -1.041   2.054  -0.036  1.00  0.00     0.105 A 
HETATM    7  C   UNL     1      -2.179   1.211  -0.049  1.00  0.00     0.146 A 
HETATM    8  F   UNL     1      -3.409   1.748  -0.125  1.00  0.00    -0.204 F 
HETATM    9  C   UNL     1      -2.100  -0.174   0.021  1.00  0.00     0.062 A 
HETATM   10  C   UNL     1      -0.849  -0.775   0.096  1.00  0.00     0.048 A 
HETATM   11  C   UNL     1      -0.754  -2.256   0.094  1.00  0.00     0.201 A 
HETATM   12  O   UNL     1      -1.768  -2.948   0.049  1.00  0.00    -0.286 OA
HETATM   13  C   UNL     1       0.597  -2.871   0.133  1.00  0.00     0.100 A 
HETATM   14  C   UNL     1       1.646  -2.034   0.165  1.00  0.00     0.113 A 
HETATM   15  N   UNL     1       1.578  -0.654   0.188  1.00  0.00    -0.346 N 
HETATM   16  C   UNL     1       0.320  -0.000   0.154  1.00  0.00     0.085 A 
ENDROOT
BRANCH   6  17
HETATM   17  N   UNL     1      -1.236   3.438  -0.207  1.00  0.00    -0.373 N 
HETATM   18  C   UNL     1      -0.193   4.411   0.172  1.00  0.00     0.153 C 
HETATM   19  C   UNL     1      -0.779   5.846   0.173  1.00  0.00     0.291 C 
HETATM   20  N   UNL     1      -1.389   6.209  -1.128  1.00  0.00     0.087 N 
HETATM   21  C   UNL     1      -1.959   7.550  -1.087  1.00  0.00     0.310 C 
HETATM   22  C   UNL     1      -2.432   5.212  -1.454  1.00  0.00     0.291 C 
HETATM   23  C   UNL     1      -1.855   3.783  -1.514  1.00  0.00     0.153 C 
ENDBRANCH   6  17
BRANCH  13  24
HETATM   24  C   UNL     1       0.850  -4.335   0.130  1.00  0.00     0.280 C 
HETATM   25  O   UNL     1       1.980  -4.813   0.156  1.00  0.00    -0.265 OA
HETATM   26  N   UNL     1      -0.268  -5.123   0.106  1.00  0.00    -0.233 N 
HETATM   27  H   UNL     1      -1.223  -4.762   0.091  1.00  0.00     0.197 HD
BRANCH  26  28
HETATM   28  O   UNL     1      -0.080  -6.520   0.126  1.00  0.00    -0.287 OA
HETATM   29  H   UNL     1       0.896  -6.600   0.158  1.00  0.00     0.244 HD
ENDBRANCH  26  28
ENDBRANCH  13  24
TORSDOF 3
