REMARK  7 active torsions:
REMARK  status: ('A' for Active; 'I' for Inactive)
REMARK       I    between atoms: N_2  and  C_3 
REMARK    1  A    between atoms: C_3  and  C_5 
REMARK    2  A    between atoms: N_7  and  C_8 
REMARK    3  A    between atoms: C_13  and  N_14 
REMARK       I    between atoms: N_17  and  C_18 
REMARK    4  A    between atoms: C_18  and  C_20 
REMARK    5  A    between atoms: C_22  and  O_23 
REMARK    6  A    between atoms: C_25  and  O_26 
REMARK    7  A    between atoms: C_28  and  O_29 
ROOT
HETATM    1  C   UNL     1       4.585  -0.886  -3.236  1.00  0.00     0.098 C 
HETATM    2  C   UNL     1       5.231  -2.005  -3.601  1.00  0.00     0.113 C 
HETATM    3  N   UNL     1       6.575  -2.264  -3.406  1.00  0.00    -0.350 N 
HETATM    4  C   UNL     1       7.417  -1.206  -2.969  1.00  0.00     0.051 A 
HETATM    5  C   UNL     1       8.813  -1.303  -2.975  1.00  0.00     0.063 A 
HETATM    6  C   UNL     1       9.656  -0.289  -2.485  1.00  0.00     0.071 A 
HETATM    7  C   UNL     1       9.033   0.881  -2.020  1.00  0.00     0.143 A 
HETATM    8  F   UNL     1       9.765   1.875  -1.492  1.00  0.00    -0.204 F 
HETATM    9  C   UNL     1       7.651   1.033  -2.029  1.00  0.00     0.062 A 
HETATM   10  C   UNL     1       6.852  -0.008  -2.506  1.00  0.00     0.045 A 
HETATM   11  C   UNL     1       5.382   0.158  -2.538  1.00  0.00     0.201 C 
HETATM   12  O   UNL     1       4.856   1.141  -2.026  1.00  0.00    -0.286 OA
ENDROOT
BRANCH   6  13
HETATM   13  N   UNL     1      11.020  -0.491  -2.404  1.00  0.00    -0.375 N 
HETATM   14  C   UNL     1      11.573  -1.841  -2.315  1.00  0.00     0.143 C 
HETATM   15  C   UNL     1      12.724  -1.850  -1.311  1.00  0.00     0.146 C 
HETATM   16  N   UNL     1      13.740  -0.827  -1.594  1.00  0.00    -0.345 N 
HETATM   17  C   UNL     1      15.124  -1.003  -1.550  1.00  0.00     0.254 C 
HETATM   18  C   UNL     1      13.193   0.528  -1.811  1.00  0.00     0.146 C 
HETATM   19  O   UNL     1      15.911  -0.121  -1.893  1.00  0.00    -0.267 OA
HETATM   20  C   UNL     1      11.997   0.542  -2.789  1.00  0.00     0.143 C 
BRANCH  17  21
HETATM   21  C   UNL     1      15.708  -2.309  -1.126  1.00  0.00     0.037 C 
HETATM   22  C   UNL     1      16.852  -2.783  -1.774  1.00  0.00     0.057 C 
HETATM   23  C   UNL     1      17.390  -4.044  -1.462  1.00  0.00     0.105 C 
HETATM   24  C   UNL     1      16.743  -4.868  -0.505  1.00  0.00     0.135 C 
HETATM   25  C   UNL     1      15.614  -4.362   0.172  1.00  0.00     0.105 C 
HETATM   26  C   UNL     1      15.164  -3.065  -0.095  1.00  0.00     0.057 C 
BRANCH  23  27
HETATM   27  O   UNL     1      18.515  -4.530  -2.075  1.00  0.00    -0.353 OA
HETATM   28  C   UNL     1      19.228  -3.693  -2.976  1.00  0.00     0.210 C 
ENDBRANCH  23  27
BRANCH  24  29
HETATM   29  O   UNL     1      17.108  -6.142  -0.162  1.00  0.00    -0.351 OA
HETATM   30  C   UNL     1      18.291  -6.732  -0.672  1.00  0.00     0.210 C 
ENDBRANCH  24  29
BRANCH  25  31
HETATM   31  O   UNL     1      14.804  -4.972   1.097  1.00  0.00    -0.353 OA
HETATM   32  C   UNL     1      15.077  -6.302   1.506  1.00  0.00     0.210 C 
ENDBRANCH  25  31
ENDBRANCH  17  21
ENDBRANCH   6  13
BRANCH   3  33
HETATM   33  C   UNL     1       7.105  -3.570  -3.854  1.00  0.00     0.090 A 
HETATM   34  C   UNL     1       6.605  -4.858  -3.243  1.00  0.00     0.028 A 
HETATM   35  C   UNL     1       8.019  -4.433  -3.013  1.00  0.00     0.028 A 
ENDBRANCH   3  33
BRANCH   1  36
HETATM   36  C   UNL     1       3.136  -0.764  -3.544  1.00  0.00     0.256 C 
HETATM   37  N   UNL     1       2.492   0.244  -2.873  1.00  0.00    -0.361 N 
HETATM   38  C   UNL     1       1.110   0.532  -3.097  1.00  0.00     0.149 C 
HETATM   39  H   UNL     1       3.042   0.878  -2.292  1.00  0.00     0.162 HD
HETATM   40  O   UNL     1       2.577  -1.508  -4.343  1.00  0.00    -0.267 OA
ENDBRANCH   1  36
TORSDOF 7
