REMARK  4 active torsions:
REMARK  status: ('A' for Active; 'I' for Inactive)
REMARK       I    between atoms: C_2  and  N_4 
REMARK    1  A    between atoms: N_7  and  C_8 
REMARK    2  A    between atoms: C_17  and  C_18 
REMARK       I    between atoms: C_18  and  N_20 
REMARK    3  A    between atoms: N_20  and  N_21 
REMARK    4  A    between atoms: N_23  and  C_24 
ROOT
HETATM    1  C   UNL     1       5.107  -4.975  -0.068  1.00  0.00     0.071 A 
HETATM    2  C   UNL     1       5.686  -5.332  -1.299  1.00  0.00     0.063 A 
HETATM    3  C   UNL     1       6.463  -6.483  -1.471  1.00  0.00     0.051 A 
HETATM    4  C   UNL     1       6.615  -7.329  -0.362  1.00  0.00     0.045 A 
HETATM    5  C   UNL     1       6.043  -7.019   0.874  1.00  0.00     0.062 A 
HETATM    6  C   UNL     1       5.302  -5.852   1.007  1.00  0.00     0.143 A 
HETATM    7  F   UNL     1       4.783  -5.576   2.214  1.00  0.00    -0.204 F 
HETATM    8  C   UNL     1       7.379  -8.587  -0.506  1.00  0.00     0.201 C 
HETATM    9  O   UNL     1       7.573  -9.309   0.469  1.00  0.00    -0.286 OA
HETATM   10  C   UNL     1       7.871  -8.957  -1.856  1.00  0.00     0.099 C 
HETATM   11  C   UNL     1       7.691  -8.056  -2.837  1.00  0.00     0.113 C 
HETATM   12  N   UNL     1       7.084  -6.814  -2.704  1.00  0.00    -0.350 N 
ENDROOT
BRANCH   1  13
HETATM   13  N   UNL     1       4.343  -3.825  -0.015  1.00  0.00    -0.375 N 
HETATM   14  C   UNL     1       3.240  -3.674   0.940  1.00  0.00     0.143 C 
HETATM   15  C   UNL     1       2.127  -2.831   0.277  1.00  0.00     0.145 C 
HETATM   16  N   UNL     1       2.645  -1.582  -0.314  1.00  0.00    -0.349 N 
HETATM   17  C   UNL     1       2.040  -0.344  -0.230  1.00  0.00     0.215 C 
HETATM   18  C   UNL     1       3.815  -1.749  -1.188  1.00  0.00     0.145 C 
HETATM   19  C   UNL     1       0.807  -0.248   0.627  1.00  0.00     0.117 C 
HETATM   20  O   UNL     1       2.478   0.652  -0.806  1.00  0.00    -0.274 OA
HETATM   21  C   UNL     1       4.919  -2.549  -0.482  1.00  0.00     0.143 C 
ENDBRANCH   1  13
BRANCH  12  22
HETATM   22  C   UNL     1       7.003  -5.938  -3.894  1.00  0.00     0.090 A 
HETATM   23  C   UNL     1       8.267  -5.417  -4.540  1.00  0.00     0.028 A 
HETATM   24  C   UNL     1       7.329  -4.459  -3.883  1.00  0.00     0.028 A 
ENDBRANCH  12  22
BRANCH  10  25
HETATM   25  C   UNL     1       8.525 -10.264  -2.160  1.00  0.00     0.271 C 
HETATM   26  O   UNL     1       8.880 -10.563  -3.297  1.00  0.00    -0.266 OA
HETATM   27  N   UNL     1       8.691 -11.112  -1.074  1.00  0.00    -0.290 N 
HETATM   28  H   UNL     1       8.439 -10.795  -0.133  1.00  0.00     0.183 HD
BRANCH  27  29
HETATM   29  N   UNL     1       9.328 -12.365  -1.238  1.00  0.00    -0.247 NA
HETATM   30  H   UNL     1       9.706 -12.389  -2.194  1.00  0.00     0.143 HD
HETATM   31  H   UNL     1       8.607 -13.091  -1.228  1.00  0.00     0.143 HD
ENDBRANCH  27  29
ENDBRANCH  10  25
TORSDOF 4
