REMARK  5 active torsions:
REMARK  status: ('A' for Active; 'I' for Inactive)
REMARK    1  A    between atoms: N_1  and  N_2 
REMARK       I    between atoms: N_2  and  C_3 
REMARK    2  A    between atoms: C_3  and  C_5 
REMARK    3  A    between atoms: N_7  and  C_8 
REMARK    4  A    between atoms: C_13  and  N_14 
REMARK       I    between atoms: N_17  and  C_18 
REMARK    5  A    between atoms: C_18  and  C_20 
ROOT
HETATM    1  C   UNL     1       4.670  -0.455  -1.105  1.00  0.00     0.099 C 
HETATM    2  C   UNL     1       5.409  -0.921  -0.085  1.00  0.00     0.113 C 
HETATM    3  N   UNL     1       6.792  -0.900  -0.004  1.00  0.00    -0.350 N 
HETATM    4  C   UNL     1       7.534  -0.507  -1.149  1.00  0.00     0.051 A 
HETATM    5  C   UNL     1       8.922  -0.649  -1.228  1.00  0.00     0.063 A 
HETATM    6  C   UNL     1       9.663  -0.230  -2.342  1.00  0.00     0.071 A 
HETATM    7  C   UNL     1       8.947   0.318  -3.420  1.00  0.00     0.143 A 
HETATM    8  F   UNL     1       9.585   0.745  -4.522  1.00  0.00    -0.204 F 
HETATM    9  C   UNL     1       7.568   0.454  -3.393  1.00  0.00     0.062 A 
HETATM   10  C   UNL     1       6.874   0.036  -2.261  1.00  0.00     0.045 A 
HETATM   11  C   UNL     1       5.401   0.147  -2.247  1.00  0.00     0.201 C 
HETATM   12  O   UNL     1       4.814   0.696  -3.171  1.00  0.00    -0.286 OA
ENDROOT
BRANCH   6  13
HETATM   13  N   UNL     1      11.024  -0.437  -2.352  1.00  0.00    -0.375 N 
HETATM   14  C   UNL     1      11.735  -0.641  -3.606  1.00  0.00     0.143 C 
HETATM   15  C   UNL     1      12.728  -1.784  -3.409  1.00  0.00     0.146 C 
HETATM   16  N   UNL     1      13.627  -1.578  -2.261  1.00  0.00    -0.345 N 
HETATM   17  C   UNL     1      15.015  -1.738  -2.247  1.00  0.00     0.253 C 
HETATM   18  C   UNL     1      12.931  -1.243  -1.007  1.00  0.00     0.146 C 
HETATM   19  O   UNL     1      15.701  -1.434  -1.274  1.00  0.00    -0.267 OA
HETATM   20  C   UNL     1      11.887  -0.123  -1.198  1.00  0.00     0.143 C 
BRANCH  17  21
HETATM   21  C   UNL     1      15.714  -2.262  -3.458  1.00  0.00     0.032 C 
HETATM   22  C   UNL     1      16.979  -1.763  -3.786  1.00  0.00     0.017 C 
HETATM   23  C   UNL     1      17.596  -2.157  -4.978  1.00  0.00     0.001 C 
HETATM   24  C   UNL     1      16.943  -3.028  -5.852  1.00  0.00     0.000 C 
HETATM   25  C   UNL     1      15.715  -3.574  -5.498  1.00  0.00     0.001 C 
HETATM   26  C   UNL     1      15.143  -3.246  -4.274  1.00  0.00     0.017 C 
ENDBRANCH  17  21
ENDBRANCH   6  13
BRANCH   3  27
HETATM   27  C   UNL     1       7.437  -1.451   1.208  1.00  0.00     0.090 A 
HETATM   28  C   UNL     1       7.210  -0.807   2.556  1.00  0.00     0.028 A 
HETATM   29  C   UNL     1       8.569  -0.771   1.944  1.00  0.00     0.028 A 
ENDBRANCH   3  27
BRANCH   1  30
HETATM   30  C   UNL     1       3.178  -0.544  -1.055  1.00  0.00     0.271 C 
HETATM   31  N   UNL     1       2.523  -0.050  -2.168  1.00  0.00    -0.290 N 
HETATM   32  H   UNL     1       3.081   0.287  -2.968  1.00  0.00     0.183 HD
HETATM   33  O   UNL     1       2.604  -1.016  -0.073  1.00  0.00    -0.266 OA
BRANCH  31  34
HETATM   34  N   UNL     1       1.128  -0.076  -2.254  1.00  0.00    -0.247 NA
HETATM   35  H   UNL     1       0.813   0.708  -2.830  1.00  0.00     0.143 HD
HETATM   36  H   UNL     1       0.754   0.107  -1.312  1.00  0.00     0.143 HD
ENDBRANCH  31  34
ENDBRANCH   1  30
TORSDOF 5
