REMARK  5 active torsions:
REMARK  status: ('A' for Active; 'I' for Inactive)
REMARK       I    between atoms: C_2  and  N_3 
REMARK    1  A    between atoms: C_2  and  C_5 
REMARK    2  A    between atoms: N_3  and  O_4 
REMARK    3  A    between atoms: N_7  and  C_8 
REMARK    4  A    between atoms: C_13  and  N_14 
REMARK       I    between atoms: N_17  and  C_18 
REMARK    5  A    between atoms: C_18  and  C_20 
ROOT
HETATM    1  C   UNL     1       3.075   0.936   0.848  1.00  0.00     0.100 C 
HETATM    2  C   UNL     1       2.675   1.223   2.100  1.00  0.00     0.113 C 
HETATM    3  N   UNL     1       3.310   2.086   2.982  1.00  0.00    -0.350 N 
HETATM    4  C   UNL     1       4.567   2.641   2.614  1.00  0.00     0.051 A 
HETATM    5  C   UNL     1       5.369   3.353   3.518  1.00  0.00     0.063 A 
HETATM    6  C   UNL     1       6.596   3.932   3.157  1.00  0.00     0.071 A 
HETATM    7  C   UNL     1       7.002   3.766   1.820  1.00  0.00     0.143 A 
HETATM    8  F   UNL     1       8.140   4.323   1.379  1.00  0.00    -0.204 F 
HETATM    9  C   UNL     1       6.256   3.036   0.902  1.00  0.00     0.062 A 
HETATM   10  C   UNL     1       5.052   2.464   1.308  1.00  0.00     0.045 A 
HETATM   11  C   UNL     1       4.296   1.619   0.357  1.00  0.00     0.201 C 
HETATM   12  O   UNL     1       4.697   1.462  -0.793  1.00  0.00    -0.286 OA
ENDROOT
BRANCH   6  13
HETATM   13  N   UNL     1       7.364   4.557   4.119  1.00  0.00    -0.375 N 
HETATM   14  C   UNL     1       8.822   4.609   4.007  1.00  0.00     0.143 C 
HETATM   15  C   UNL     1       9.445   4.265   5.365  1.00  0.00     0.146 C 
HETATM   16  N   UNL     1       8.896   5.058   6.479  1.00  0.00    -0.345 N 
HETATM   17  C   UNL     1       9.623   5.661   7.505  1.00  0.00     0.253 C 
HETATM   18  C   UNL     1       7.425   5.109   6.527  1.00  0.00     0.146 C 
HETATM   19  O   UNL     1       9.096   6.398   8.338  1.00  0.00    -0.267 OA
HETATM   20  C   UNL     1       6.801   5.441   5.157  1.00  0.00     0.143 C 
BRANCH  17  21
HETATM   21  C   UNL     1      11.096   5.458   7.604  1.00  0.00     0.032 A 
HETATM   22  C   UNL     1      11.895   6.551   7.961  1.00  0.00     0.017 A 
HETATM   23  C   UNL     1      13.285   6.420   8.004  1.00  0.00     0.001 A 
HETATM   24  C   UNL     1      13.882   5.203   7.676  1.00  0.00     0.000 A 
HETATM   25  C   UNL     1      13.091   4.098   7.371  1.00  0.00     0.001 A 
HETATM   26  C   UNL     1      11.700   4.215   7.382  1.00  0.00     0.017 A 
ENDBRANCH  17  21
ENDBRANCH   6  13
BRANCH   3  27
HETATM   27  C   UNL     1       2.741   2.223   4.333  1.00  0.00     0.090 A 
HETATM   28  C   UNL     1       1.354   2.791   4.525  1.00  0.00     0.028 A 
HETATM   29  C   UNL     1       2.538   3.551   5.025  1.00  0.00     0.028 A 
ENDBRANCH   3  27
BRANCH   1  30
HETATM   30  C   UNL     1       2.302  -0.049   0.053  1.00  0.00     0.280 C 
HETATM   31  O   UNL     1       1.314  -0.630   0.499  1.00  0.00    -0.265 OA
HETATM   32  N   UNL     1       2.773  -0.291  -1.206  1.00  0.00    -0.233 N 
HETATM   33  H   UNL     1       3.604   0.152  -1.603  1.00  0.00     0.197 HD
BRANCH  32  34
HETATM   34  O   UNL     1       2.108  -1.269  -1.974  1.00  0.00    -0.287 OA
HETATM   35  H   UNL     1       1.397  -1.562  -1.365  1.00  0.00     0.244 HD
ENDBRANCH  32  34
ENDBRANCH   1  30
TORSDOF 5
