REMARK  4 active torsions:
REMARK  status: ('A' for Active; 'I' for Inactive)
REMARK       I    between atoms: C_2  and  N_4 
REMARK    1  A    between atoms: N_7  and  C_8 
REMARK    2  A    between atoms: C_17  and  C_18 
REMARK       I    between atoms: C_18  and  N_20 
REMARK    3  A    between atoms: N_20  and  O_21 
REMARK    4  A    between atoms: N_23  and  C_24 
ROOT
HETATM    1  C   UNL     1       4.654   5.210   0.194  1.00  0.00     0.071 A 
HETATM    2  C   UNL     1       4.882   5.603   1.524  1.00  0.00     0.063 A 
HETATM    3  C   UNL     1       5.414   6.854   1.866  1.00  0.00     0.051 A 
HETATM    4  C   UNL     1       5.688   7.751   0.822  1.00  0.00     0.045 A 
HETATM    5  C   UNL     1       5.490   7.393  -0.512  1.00  0.00     0.062 A 
HETATM    6  C   UNL     1       4.985   6.134  -0.810  1.00  0.00     0.143 A 
HETATM    7  F   UNL     1       4.819   5.822  -2.105  1.00  0.00    -0.204 F 
HETATM    8  C   UNL     1       6.159   9.118   1.140  1.00  0.00     0.201 C 
HETATM    9  O   UNL     1       6.431   9.909   0.240  1.00  0.00    -0.286 OA
HETATM   10  C   UNL     1       6.256   9.507   2.568  1.00  0.00     0.100 C 
HETATM   11  C   UNL     1       6.008   8.554   3.481  1.00  0.00     0.113 C 
HETATM   12  N   UNL     1       5.665   7.240   3.210  1.00  0.00    -0.350 N 
ENDROOT
BRANCH   1  13
HETATM   13  N   UNL     1       4.045   3.991  -0.043  1.00  0.00    -0.375 N 
HETATM   14  C   UNL     1       3.217   3.779  -1.235  1.00  0.00     0.143 C 
HETATM   15  C   UNL     1       2.020   2.888  -0.840  1.00  0.00     0.145 C 
HETATM   16  N   UNL     1       2.455   1.644  -0.190  1.00  0.00    -0.349 N 
HETATM   17  C   UNL     1       1.838   0.418  -0.358  1.00  0.00     0.215 C 
HETATM   18  C   UNL     1       3.401   1.820   0.923  1.00  0.00     0.145 C 
HETATM   19  C   UNL     1       0.748   0.339  -1.397  1.00  0.00     0.117 C 
HETATM   20  O   UNL     1       2.155  -0.580   0.289  1.00  0.00    -0.274 OA
HETATM   21  C   UNL     1       4.572   2.751   0.557  1.00  0.00     0.143 C 
ENDBRANCH   1  13
BRANCH  12  22
HETATM   22  C   UNL     1       5.426   6.340   4.357  1.00  0.00     0.090 A 
HETATM   23  C   UNL     1       6.539   6.025   5.329  1.00  0.00     0.028 A 
HETATM   24  C   UNL     1       5.995   4.943   4.455  1.00  0.00     0.028 A 
ENDBRANCH  12  22
BRANCH  10  25
HETATM   25  C   UNL     1       6.603  10.877   3.026  1.00  0.00     0.280 C 
HETATM   26  O   UNL     1       6.671  11.183   4.215  1.00  0.00    -0.265 OA
HETATM   27  N   UNL     1       6.839  11.783   2.029  1.00  0.00    -0.233 N 
HETATM   28  H   UNL     1       6.817  11.558   1.034  1.00  0.00     0.197 HD
BRANCH  27  29
HETATM   29  O   UNL     1       7.186  13.096   2.408  1.00  0.00    -0.287 OA
HETATM   30  H   UNL     1       7.167  13.046   3.388  1.00  0.00     0.244 HD
ENDBRANCH  27  29
ENDBRANCH  10  25
TORSDOF 4
