REMARK  9 active torsions:
REMARK  status: ('A' for Active; 'I' for Inactive)
REMARK       I    between atoms: N_2  and  C_3 
REMARK    1  A    between atoms: C_3  and  C_5 
REMARK    2  A    between atoms: N_7  and  C_8 
REMARK    3  A    between atoms: C_13  and  N_14 
REMARK    4  A    between atoms: N_17  and  C_18 
REMARK    5  A    between atoms: C_18  and  C_19 
REMARK       I    between atoms: C_19  and  N_21 
REMARK    6  A    between atoms: N_21  and  C_22 
REMARK    7  A    between atoms: C_25  and  C_26 
REMARK    8  A    between atoms: C_26  and  C_28 
REMARK    9  A    between atoms: C_29  and  C_30 
ROOT
HETATM    1  N   UNL     1      11.071  -0.974  -2.313  1.00  0.00    -0.375 N 
HETATM    2  C   UNL     1      11.649  -2.224  -1.807  1.00  0.00     0.153 C 
HETATM    3  C   UNL     1      12.789  -1.876  -0.828  1.00  0.00     0.292 C 
HETATM    4  N   UNL     1      13.859  -0.992  -1.384  1.00  0.00     0.100 N 
HETATM    5  C   UNL     1      13.190   0.220  -1.947  1.00  0.00     0.292 C 
HETATM    6  C   UNL     1      12.016  -0.041  -2.933  1.00  0.00     0.153 C 
ENDROOT
BRANCH   4   7
HETATM    7  C   UNL     1      14.615  -1.660  -2.467  1.00  0.00     0.375 C 
BRANCH   7   8
HETATM    8  C   UNL     1      15.258  -2.953  -1.991  1.00  0.00     0.250 C 
HETATM    9  O   UNL     1      14.986  -4.009  -2.564  1.00  0.00    -0.271 OA
HETATM   10  N   UNL     1      16.091  -2.803  -0.894  1.00  0.00    -0.326 N 
HETATM   11  H   UNL     1      15.982  -1.929  -0.392  1.00  0.00     0.169 HD
BRANCH  10  12
HETATM   12  C   UNL     1      16.785  -3.861  -0.263  1.00  0.00     0.034 A 
HETATM   13  C   UNL     1      16.991  -5.086  -0.897  1.00  0.00     0.030 A 
HETATM   14  C   UNL     1      17.540  -6.171  -0.207  1.00  0.00     0.018 A 
HETATM   15  C   UNL     1      17.921  -6.033   1.127  1.00  0.00     0.014 A 
HETATM   16  C   UNL     1      17.816  -4.776   1.735  1.00  0.00     0.018 A 
HETATM   17  C   UNL     1      17.252  -3.692   1.039  1.00  0.00     0.030 A 
BRANCH  15  18
HETATM   18  C   UNL     1      18.390  -7.269   1.823  1.00  0.00     0.182 C 
HETATM   19  O   UNL     1      18.875  -8.200   1.189  1.00  0.00    -0.288 OA
BRANCH  18  20
HETATM   20  C   UNL     1      18.172  -7.349   3.287  1.00  0.00     0.056 C 
HETATM   21  C   UNL     1      18.507  -8.438   3.999  1.00  0.00     0.015 C 
BRANCH  21  22
HETATM   22  C   UNL     1      18.335  -8.487   5.461  1.00  0.00    -0.036 C 
HETATM   23  C   UNL     1      17.351  -7.710   6.098  1.00  0.00     0.011 C 
HETATM   24  C   UNL     1      17.299  -7.630   7.484  1.00  0.00     0.001 C 
HETATM   25  C   UNL     1      18.157  -8.416   8.232  1.00  0.00     0.000 C 
HETATM   26  C   UNL     1      18.968  -9.351   7.596  1.00  0.00     0.001 C 
HETATM   27  C   UNL     1      19.146  -9.331   6.240  1.00  0.00     0.011 C 
ENDBRANCH  21  22
ENDBRANCH  18  20
ENDBRANCH  15  18
ENDBRANCH  10  12
ENDBRANCH   7   8
ENDBRANCH   4   7
BRANCH   1  28
HETATM   28  C   UNL     1       9.709  -0.758  -2.327  1.00  0.00     0.071 A 
HETATM   29  C   UNL     1       8.916  -1.205  -1.243  1.00  0.00     0.063 A 
HETATM   30  C   UNL     1       7.525  -1.071  -1.219  1.00  0.00     0.051 A 
HETATM   31  N   UNL     1       6.695  -1.537  -0.158  1.00  0.00    -0.350 N 
HETATM   32  C   UNL     1       6.939  -0.451  -2.320  1.00  0.00     0.045 A 
HETATM   33  C   UNL     1       5.313  -1.502  -0.308  1.00  0.00     0.113 A 
HETATM   34  C   UNL     1       4.654  -0.956  -1.344  1.00  0.00     0.098 A 
HETATM   35  C   UNL     1       5.488  -0.362  -2.362  1.00  0.00     0.201 A 
HETATM   36  O   UNL     1       4.930   0.252  -3.268  1.00  0.00    -0.286 OA
HETATM   37  C   UNL     1       7.681   0.071  -3.380  1.00  0.00     0.062 A 
HETATM   38  C   UNL     1       9.051  -0.091  -3.376  1.00  0.00     0.143 A 
HETATM   39  F   UNL     1       9.735   0.366  -4.436  1.00  0.00    -0.204 F 
BRANCH  31  40
HETATM   40  C   UNL     1       7.291  -2.230   1.002  1.00  0.00     0.090 A 
HETATM   41  C   UNL     1       6.715  -2.229   2.393  1.00  0.00     0.028 A 
HETATM   42  C   UNL     1       7.949  -1.432   2.105  1.00  0.00     0.028 A 
ENDBRANCH  31  40
BRANCH  34  43
HETATM   43  C   UNL     1       3.174  -0.919  -1.447  1.00  0.00     0.256 C 
HETATM   44  N   UNL     1       2.569  -0.338  -2.613  1.00  0.00    -0.361 N 
HETATM   45  C   UNL     1       1.120  -0.296  -2.723  1.00  0.00     0.149 C 
HETATM   46  H   UNL     1       3.130   0.040  -3.366  1.00  0.00     0.162 HD
HETATM   47  O   UNL     1       2.519  -1.411  -0.527  1.00  0.00    -0.267 OA
ENDBRANCH  34  43
ENDBRANCH   1  28
TORSDOF 9
