REMARK  7 active torsions:
REMARK  status: ('A' for Active; 'I' for Inactive)
REMARK    1  A    between atoms: C_2  and  C_3 
REMARK    2  A    between atoms: C_3  and  C_4 
REMARK    3  A    between atoms: C_4  and  C_5 
REMARK    4  A    between atoms: C_5  and  C_6 
REMARK    5  A    between atoms: C_6  and  C_7 
REMARK    6  A    between atoms: C_10  and  O_11 
REMARK    7  A    between atoms: C_12  and  O_13 
ROOT
HETATM    1  C   UNL     1       6.971   3.620   2.512  1.00  0.00    -0.055 A 
HETATM    2  C   UNL     1       7.204   3.491   3.891  1.00  0.00     0.010 A 
HETATM    3  C   UNL     1       7.526   4.609   4.668  1.00  0.00     0.040 A 
HETATM    4  C   UNL     1       7.605   5.859   4.059  1.00  0.00     0.098 A 
HETATM    5  C   UNL     1       7.392   5.989   2.691  1.00  0.00     0.099 A 
HETATM    6  C   UNL     1       7.085   4.883   1.913  1.00  0.00     0.046 A 
ENDROOT
BRANCH   1   7
HETATM    7  C   UNL     1       6.514   2.442   1.687  1.00  0.00     0.038 C 
BRANCH   7   8
HETATM    8  C   UNL     1       4.986   2.364   1.666  1.00  0.00     0.005 C 
BRANCH   8   9
HETATM    9  C   UNL     1       4.476   1.186   0.840  1.00  0.00     0.000 C 
BRANCH   9  10
HETATM   10  C   UNL     1       2.946   1.156   0.860  1.00  0.00    -0.000 C 
BRANCH  10  11
HETATM   11  C   UNL     1       2.395  -0.006   0.041  1.00  0.00    -0.005 C 
HETATM   12  C   UNL     1       0.875  -0.022   0.070  1.00  0.00     0.005 C 
ENDBRANCH  10  11
ENDBRANCH   9  10
ENDBRANCH   8   9
ENDBRANCH   7   8
ENDBRANCH   1   7
BRANCH   5  13
HETATM   13  O   UNL     1       7.460   7.217   2.098  1.00  0.00    -0.358 OA
HETATM   14  H   UNL     1       7.652   7.830   2.835  1.00  0.00     0.217 HD
ENDBRANCH   5  13
BRANCH   4  15
HETATM   15  O   UNL     1       7.877   6.994   4.771  1.00  0.00    -0.358 OA
HETATM   16  H   UNL     1       7.963   6.747   5.708  1.00  0.00     0.217 HD
ENDBRANCH   4  15
TORSDOF 7
