REMARK  3 active torsions:
REMARK  status: ('A' for Active; 'I' for Inactive)
REMARK    1  A    between atoms: C_6  and  N_7 
REMARK    2  A    between atoms: C_20  and  C_21 
REMARK       I    between atoms: C_21  and  N_23 
REMARK    3  A    between atoms: N_23  and  N_24 
ROOT
HETATM    1  C   UNL     1       3.116   0.463  -1.364  1.00  0.00     0.035 C 
HETATM    2  C   UNL     1       2.753   0.220   0.105  1.00  0.00     0.110 C 
HETATM    3  C   UNL     1       2.445   1.524   0.836  1.00  0.00     0.201 C 
HETATM    4  O   UNL     1       1.343   2.200   0.225  1.00  0.00    -0.344 OA
HETATM    5  C   UNL     1       0.211   1.413   0.131  1.00  0.00     0.126 A 
HETATM    6  C   UNL     1      -1.037   2.054  -0.058  1.00  0.00     0.105 A 
HETATM    7  C   UNL     1      -2.175   1.211  -0.069  1.00  0.00     0.146 A 
HETATM    8  F   UNL     1      -3.404   1.748  -0.165  1.00  0.00    -0.204 F 
HETATM    9  C   UNL     1      -2.098  -0.174   0.021  1.00  0.00     0.062 A 
HETATM   10  C   UNL     1      -0.848  -0.778   0.108  1.00  0.00     0.048 A 
HETATM   11  C   UNL     1      -0.754  -2.260   0.124  1.00  0.00     0.201 A 
HETATM   12  O   UNL     1      -1.772  -2.949   0.111  1.00  0.00    -0.286 OA
HETATM   13  C   UNL     1       0.594  -2.877   0.130  1.00  0.00     0.099 A 
HETATM   14  C   UNL     1       1.644  -2.041   0.164  1.00  0.00     0.113 A 
HETATM   15  N   UNL     1       1.579  -0.660   0.203  1.00  0.00    -0.346 N 
HETATM   16  C   UNL     1       0.322  -0.004   0.157  1.00  0.00     0.085 A 
ENDROOT
BRANCH   6  17
HETATM   17  N   UNL     1      -1.232   3.441  -0.236  1.00  0.00    -0.373 N 
HETATM   18  C   UNL     1      -0.183   4.406   0.153  1.00  0.00     0.153 C 
HETATM   19  C   UNL     1      -0.741   5.851   0.115  1.00  0.00     0.291 C 
HETATM   20  N   UNL     1      -1.307   6.210  -1.206  1.00  0.00     0.087 N 
HETATM   21  C   UNL     1      -1.867   7.559  -1.181  1.00  0.00     0.310 C 
HETATM   22  C   UNL     1      -2.348   5.221  -1.564  1.00  0.00     0.291 C 
HETATM   23  C   UNL     1      -1.804   3.775  -1.566  1.00  0.00     0.153 C 
ENDBRANCH   6  17
BRANCH  13  24
HETATM   24  C   UNL     1       0.854  -4.342   0.073  1.00  0.00     0.271 C 
HETATM   25  O   UNL     1       1.993  -4.804   0.026  1.00  0.00    -0.266 OA
HETATM   26  N   UNL     1      -0.276  -5.141   0.064  1.00  0.00    -0.290 N 
HETATM   27  H   UNL     1      -1.207  -4.715   0.148  1.00  0.00     0.183 HD
BRANCH  26  28
HETATM   28  N   UNL     1      -0.146  -6.548   0.049  1.00  0.00    -0.247 NA
HETATM   29  H   UNL     1       0.855  -6.756   0.164  1.00  0.00     0.143 HD
HETATM   30  H   UNL     1      -0.367  -6.872  -0.895  1.00  0.00     0.143 HD
ENDBRANCH  26  28
ENDBRANCH  13  24
TORSDOF 3
