REMARK  4 active torsions:
REMARK  status: ('A' for Active; 'I' for Inactive)
REMARK       I    between atoms: C_2  and  N_4 
REMARK    1  A    between atoms: N_7  and  C_8 
REMARK    2  A    between atoms: C_17  and  C_18 
REMARK    3  A    between atoms: C_18  and  O_20 
REMARK    4  A    between atoms: N_22  and  C_23 
ROOT
HETATM    1  C   UNL     1       4.750  -5.003  -0.555  1.00  0.00     0.071 A 
HETATM    2  C   UNL     1       5.310  -5.217  -1.826  1.00  0.00     0.063 A 
HETATM    3  C   UNL     1       6.017  -6.377  -2.159  1.00  0.00     0.051 A 
HETATM    4  C   UNL     1       6.117  -7.376  -1.179  1.00  0.00     0.045 A 
HETATM    5  C   UNL     1       5.571  -7.205   0.094  1.00  0.00     0.062 A 
HETATM    6  C   UNL     1       4.899  -6.027   0.391  1.00  0.00     0.143 A 
HETATM    7  F   UNL     1       4.399  -5.889   1.629  1.00  0.00    -0.204 F 
HETATM    8  C   UNL     1       6.783  -8.649  -1.514  1.00  0.00     0.202 C 
HETATM    9  O   UNL     1       6.937  -9.532  -0.671  1.00  0.00    -0.286 OA
HETATM   10  C   UNL     1       7.232  -8.863  -2.906  1.00  0.00     0.104 C 
HETATM   11  C   UNL     1       7.117  -7.824  -3.751  1.00  0.00     0.114 C 
HETATM   12  N   UNL     1       6.611  -6.574  -3.433  1.00  0.00    -0.350 N 
ENDROOT
BRANCH   1  13
HETATM   13  N   UNL     1       4.040  -3.838  -0.338  1.00  0.00    -0.375 N 
HETATM   14  C   UNL     1       2.941  -3.772   0.632  1.00  0.00     0.143 C 
HETATM   15  C   UNL     1       1.844  -2.842   0.073  1.00  0.00     0.145 C 
HETATM   16  N   UNL     1       2.389  -1.543  -0.367  1.00  0.00    -0.349 N 
HETATM   17  C   UNL     1       1.847  -0.306  -0.077  1.00  0.00     0.215 C 
HETATM   18  C   UNL     1       3.542  -1.634  -1.274  1.00  0.00     0.145 C 
HETATM   19  C   UNL     1       0.663  -0.282   0.847  1.00  0.00     0.117 C 
HETATM   20  O   UNL     1       2.312   0.742  -0.525  1.00  0.00    -0.274 OA
HETATM   21  C   UNL     1       4.635  -2.532  -0.679  1.00  0.00     0.143 C 
ENDBRANCH   1  13
BRANCH  12  22
HETATM   22  C   UNL     1       6.591  -5.536  -4.488  1.00  0.00     0.090 A 
HETATM   23  C   UNL     1       7.884  -5.025  -5.080  1.00  0.00     0.028 A 
HETATM   24  C   UNL     1       7.030  -4.104  -4.273  1.00  0.00     0.028 A 
ENDBRANCH  12  22
BRANCH  10  25
HETATM   25  C   UNL     1       7.782 -10.148  -3.378  1.00  0.00     0.181 C 
HETATM   26  O   UNL     1       8.138 -10.336  -4.535  1.00  0.00    -0.646 OA
BRANCH  25  27
HETATM   27  O   UNL     1       7.857 -11.114  -2.438  1.00  0.00    -0.773 OA
HETATM   28  H   UNL     1       7.553 -10.833  -1.538  1.00  0.00     0.167 HD
ENDBRANCH  25  27
ENDBRANCH  10  25
TORSDOF 4
