REMARK  8 active torsions:
REMARK  status: ('A' for Active; 'I' for Inactive)
REMARK    1  A    between atoms: O_2  and  C_3 
REMARK    2  A    between atoms: C_5  and  C_6 
REMARK       I    between atoms: C_6  and  N_8 
REMARK    3  A    between atoms: N_11  and  C_12 
REMARK    4  A    between atoms: C_21  and  C_22 
REMARK       I    between atoms: C_22  and  N_24 
REMARK    5  A    between atoms: N_24  and  O_25 
REMARK    6  A    between atoms: N_27  and  C_28 
REMARK    7  A    between atoms: C_34  and  O_35 
REMARK    8  A    between atoms: C_37  and  O_38 
ROOT
HETATM    1  C   UNL     1      -2.051   4.956   0.545  1.00  0.00     0.071 A 
HETATM    2  C   UNL     1      -1.893   5.715   1.716  1.00  0.00     0.062 A 
HETATM    3  C   UNL     1      -2.965   6.049   2.537  1.00  0.00     0.047 A 
HETATM    4  C   UNL     1      -4.242   5.559   2.202  1.00  0.00     0.041 A 
HETATM    5  C   UNL     1      -4.455   4.891   0.996  1.00  0.00     0.062 A 
HETATM    6  C   UNL     1      -3.363   4.617   0.171  1.00  0.00     0.143 A 
HETATM    7  F   UNL     1      -3.588   3.960  -0.976  1.00  0.00    -0.204 F 
HETATM    8  C   UNL     1      -5.338   5.736   3.205  1.00  0.00     0.183 C 
HETATM    9  O   UNL     1      -6.503   5.458   2.955  1.00  0.00    -0.291 OA
HETATM   10  C   UNL     1      -4.916   6.284   4.534  1.00  0.00     0.156 C 
HETATM   11  C   UNL     1      -3.995   7.255   4.346  1.00  0.00     0.137 C 
HETATM   12  N   UNL     1      -2.801   6.926   3.657  1.00  0.00    -0.367 N 
ENDROOT
BRANCH   1  13
HETATM   13  N   UNL     1      -0.918   4.617  -0.157  1.00  0.00    -0.375 N 
HETATM   14  C   UNL     1       0.214   4.006   0.551  1.00  0.00     0.143 C 
HETATM   15  C   UNL     1       1.524   4.642   0.070  1.00  0.00     0.146 C 
HETATM   16  N   UNL     1       1.634   4.682  -1.400  1.00  0.00    -0.345 N 
HETATM   17  C   UNL     1       2.652   4.153  -2.191  1.00  0.00     0.254 C 
HETATM   18  C   UNL     1       0.447   5.248  -2.071  1.00  0.00     0.146 C 
HETATM   19  O   UNL     1       2.612   4.153  -3.420  1.00  0.00    -0.267 OA
HETATM   20  C   UNL     1      -0.850   4.534  -1.622  1.00  0.00     0.143 C 
BRANCH  17  21
HETATM   21  C   UNL     1       3.822   3.496  -1.555  1.00  0.00     0.037 C 
HETATM   22  C   UNL     1       4.458   4.049  -0.446  1.00  0.00     0.057 C 
HETATM   23  C   UNL     1       5.398   3.310   0.279  1.00  0.00     0.105 C 
HETATM   24  C   UNL     1       5.826   2.068  -0.224  1.00  0.00     0.135 C 
HETATM   25  C   UNL     1       5.306   1.593  -1.450  1.00  0.00     0.105 C 
HETATM   26  C   UNL     1       4.277   2.291  -2.090  1.00  0.00     0.057 C 
BRANCH  23  27
HETATM   27  O   UNL     1       5.946   3.799   1.437  1.00  0.00    -0.353 OA
HETATM   28  C   UNL     1       5.104   4.635   2.231  1.00  0.00     0.210 C 
ENDBRANCH  23  27
BRANCH  24  29
HETATM   29  O   UNL     1       6.793   1.272   0.346  1.00  0.00    -0.351 OA
HETATM   30  C   UNL     1       6.806   1.201   1.766  1.00  0.00     0.210 C 
ENDBRANCH  24  29
BRANCH  25  31
HETATM   31  O   UNL     1       5.789   0.396  -1.919  1.00  0.00    -0.353 OA
HETATM   32  C   UNL     1       5.835   0.268  -3.338  1.00  0.00     0.210 C 
ENDBRANCH  25  31
ENDBRANCH  17  21
ENDBRANCH   1  13
BRANCH  12  33
HETATM   33  C   UNL     1      -1.615   6.730   4.523  1.00  0.00     0.085 A 
HETATM   34  C   UNL     1      -1.118   7.841   5.412  1.00  0.00     0.027 A 
HETATM   35  C   UNL     1      -0.296   7.399   4.244  1.00  0.00     0.027 A 
ENDBRANCH  12  33
BRANCH  10  36
HETATM   36  C   UNL     1      -4.601   5.337   5.647  1.00  0.00     0.261 C 
HETATM   37  O   UNL     1      -4.807   4.124   5.583  1.00  0.00    -0.270 OA
HETATM   38  N   UNL     1      -4.042   5.925   6.759  1.00  0.00    -0.236 N 
HETATM   39  H   UNL     1      -3.817   6.910   6.845  1.00  0.00     0.197 HD
BRANCH  38  40
HETATM   40  O   UNL     1      -3.673   5.097   7.839  1.00  0.00    -0.287 OA
HETATM   41  H   UNL     1      -4.144   4.261   7.636  1.00  0.00     0.244 HD
ENDBRANCH  38  40
ENDBRANCH  10  36
TORSDOF 8
