REMARK  13 active torsions:
REMARK  status: ('A' for Active; 'I' for Inactive)
REMARK    1  A    between atoms: O_2  and  C_3 
REMARK    2  A    between atoms: C_5  and  C_6 
REMARK    3  A    between atoms: C_7  and  C_8 
REMARK    4  A    between atoms: C_8  and  C_10 
REMARK    5  A    between atoms: C_13  and  N_14 
REMARK       I    between atoms: N_14  and  C_15 
REMARK    6  A    between atoms: C_15  and  C_17 
REMARK    7  A    between atoms: C_17  and  N_18 
REMARK    8  A    between atoms: N_21  and  C_22 
REMARK    9  A    between atoms: C_31  and  C_32 
REMARK       I    between atoms: C_32  and  N_34 
REMARK   10  A    between atoms: N_34  and  O_35 
REMARK   11  A    between atoms: N_37  and  C_38 
REMARK   12  A    between atoms: C_46  and  O_47 
REMARK   13  A    between atoms: C_49  and  O_50 
ROOT
HETATM    1  N   UNL     1      -4.351   2.543   8.680  1.00  0.00     0.100 N 
HETATM    2  C   UNL     1      -5.708   2.246   9.216  1.00  0.00     0.292 C 
HETATM    3  C   UNL     1      -6.085   2.973  10.534  1.00  0.00     0.153 C 
HETATM    4  N   UNL     1      -5.049   2.831  11.566  1.00  0.00    -0.375 N 
HETATM    5  C   UNL     1      -3.641   2.943  11.116  1.00  0.00     0.153 C 
HETATM    6  C   UNL     1      -3.399   2.213   9.772  1.00  0.00     0.292 C 
ENDROOT
BRANCH   1   7
HETATM    7  C   UNL     1      -4.247   3.956   8.244  1.00  0.00     0.375 C 
BRANCH   7   8
HETATM    8  C   UNL     1      -2.836   4.301   7.744  1.00  0.00     0.250 C 
HETATM    9  N   UNL     1      -2.637   4.174   6.364  1.00  0.00    -0.326 N 
HETATM   10  H   UNL     1      -3.449   3.970   5.800  1.00  0.00     0.169 HD
HETATM   11  O   UNL     1      -1.992   4.689   8.548  1.00  0.00    -0.271 OA
BRANCH   9  12
HETATM   12  C   UNL     1      -1.411   4.398   5.692  1.00  0.00     0.034 A 
HETATM   13  C   UNL     1      -0.185   4.493   6.354  1.00  0.00     0.030 A 
HETATM   14  C   UNL     1       1.001   4.728   5.656  1.00  0.00     0.018 A 
HETATM   15  C   UNL     1       0.991   4.851   4.264  1.00  0.00     0.014 A 
HETATM   16  C   UNL     1      -0.228   4.763   3.581  1.00  0.00     0.018 A 
HETATM   17  C   UNL     1      -1.420   4.521   4.289  1.00  0.00     0.030 A 
BRANCH  15  18
HETATM   18  C   UNL     1       2.255   5.093   3.509  1.00  0.00     0.182 C 
HETATM   19  O   UNL     1       2.252   5.700   2.446  1.00  0.00    -0.288 OA
BRANCH  18  20
HETATM   20  C   UNL     1       3.502   4.522   4.094  1.00  0.00     0.056 C 
HETATM   21  C   UNL     1       4.720   4.944   3.720  1.00  0.00     0.015 C 
BRANCH  21  22
HETATM   22  C   UNL     1       5.967   4.398   4.289  1.00  0.00    -0.031 A 
HETATM   23  C   UNL     1       6.060   3.061   4.696  1.00  0.00     0.051 A 
HETATM   24  C   UNL     1       7.248   2.520   5.208  1.00  0.00     0.105 A 
HETATM   25  C   UNL     1       8.386   3.340   5.311  1.00  0.00     0.135 A 
HETATM   26  C   UNL     1       8.288   4.703   4.951  1.00  0.00     0.105 A 
HETATM   27  C   UNL     1       7.095   5.210   4.409  1.00  0.00     0.051 A 
BRANCH  24  28
HETATM   28  O   UNL     1       7.307   1.238   5.692  1.00  0.00    -0.353 OA
HETATM   29  C   UNL     1       6.348   0.312   5.191  1.00  0.00     0.210 C 
ENDBRANCH  24  28
BRANCH  25  30
HETATM   30  O   UNL     1       9.610   2.942   5.800  1.00  0.00    -0.351 OA
HETATM   31  C   UNL     1      10.007   1.603   5.526  1.00  0.00     0.210 C 
ENDBRANCH  25  30
BRANCH  26  32
HETATM   32  O   UNL     1       9.414   5.479   5.111  1.00  0.00    -0.353 OA
HETATM   33  C   UNL     1       9.175   6.849   5.423  1.00  0.00     0.210 C 
ENDBRANCH  26  32
ENDBRANCH  21  22
ENDBRANCH  18  20
ENDBRANCH  15  18
ENDBRANCH   9  12
ENDBRANCH   7   8
ENDBRANCH   1   7
BRANCH   4  34
HETATM   34  C   UNL     1      -5.281   2.280  12.821  1.00  0.00     0.071 C 
HETATM   35  C   UNL     1      -4.496   2.722  13.907  1.00  0.00     0.062 C 
HETATM   36  C   UNL     1      -4.512   2.079  15.147  1.00  0.00     0.047 C 
HETATM   37  C   UNL     1      -5.289   0.911  15.279  1.00  0.00     0.041 C 
HETATM   38  N   UNL     1      -3.811   2.585  16.292  1.00  0.00    -0.367 N 
HETATM   39  C   UNL     1      -6.222   0.569  14.303  1.00  0.00     0.062 C 
HETATM   40  C   UNL     1      -5.007   0.016  16.449  1.00  0.00     0.183 C 
HETATM   41  C   UNL     1      -6.224   1.271  13.096  1.00  0.00     0.143 C 
HETATM   42  F   UNL     1      -7.104   0.878  12.161  1.00  0.00    -0.204 F 
HETATM   43  O   UNL     1      -5.640  -1.013  16.648  1.00  0.00    -0.291 OA
HETATM   44  C   UNL     1      -3.898   0.464  17.358  1.00  0.00     0.156 C 
HETATM   45  C   UNL     1      -3.946   1.810  17.470  1.00  0.00     0.137 C 
BRANCH  44  46
HETATM   46  C   UNL     1      -2.507  -0.077  17.193  1.00  0.00     0.261 C 
HETATM   47  O   UNL     1      -2.233  -1.024  16.465  1.00  0.00    -0.270 OA
HETATM   48  N   UNL     1      -1.567   0.578  17.962  1.00  0.00    -0.236 N 
HETATM   49  H   UNL     1      -1.768   1.371  18.562  1.00  0.00     0.197 HD
BRANCH  48  50
HETATM   50  O   UNL     1      -0.218   0.184  17.885  1.00  0.00    -0.287 OA
HETATM   51  H   UNL     1      -0.288  -0.786  17.784  1.00  0.00     0.244 HD
ENDBRANCH  48  50
ENDBRANCH  44  46
BRANCH  38  52
HETATM   52  C   UNL     1      -2.474   3.195  16.099  1.00  0.00     0.085 A 
HETATM   53  C   UNL     1      -1.908   4.145  17.128  1.00  0.00     0.027 A 
HETATM   54  C   UNL     1      -2.290   4.652  15.771  1.00  0.00     0.027 A 
ENDBRANCH  38  52
ENDBRANCH   4  34
TORSDOF 13
