REMARK  2 active torsions:
REMARK  status: ('A' for Active; 'I' for Inactive)
REMARK    1  A    between atoms: C_5  and  O_6 
REMARK    2  A    between atoms: C_7  and  C_8 
ROOT
HETATM    1  O   UNL     1       1.942  -0.686   1.088  1.00  0.00    -0.259 OA
HETATM    2  C   UNL     1       0.942  -0.240   0.553  1.00  0.00     0.297 A 
HETATM    3  O   UNL     1       0.675   1.094   0.435  1.00  0.00    -0.311 OA
HETATM    4  C   UNL     1      -0.563   1.265  -0.238  1.00  0.00     0.244 A 
HETATM    5  C   UNL     1      -1.018  -0.114  -0.502  1.00  0.00     0.084 A 
HETATM    6  C   UNL     1      -0.151  -1.031  -0.060  1.00  0.00     0.081 A 
ENDROOT
BRANCH   6   7
HETATM    7  C   UNL     1      -0.237  -2.496  -0.128  1.00  0.00    -0.017 A 
HETATM    8  C   UNL     1      -0.893  -3.133  -1.195  1.00  0.00     0.014 A 
HETATM    9  C   UNL     1      -0.969  -4.528  -1.271  1.00  0.00     0.020 A 
HETATM   10  C   UNL     1      -0.379  -5.306  -0.281  1.00  0.00     0.011 A 
HETATM   11 BR   UNL     1      -0.476  -7.190  -0.383  1.00  0.00    -0.051 Br
HETATM   12  C   UNL     1       0.284  -4.701   0.782  1.00  0.00     0.020 A 
HETATM   13  C   UNL     1       0.354  -3.304   0.856  1.00  0.00     0.014 A 
ENDBRANCH   6   7
BRANCH   5  14
HETATM   14  O   UNL     1      -2.219  -0.361  -1.118  1.00  0.00    -0.362 OA
HETATM   15  H   UNL     1      -2.684   0.480  -1.276  1.00  0.00     0.217 HD
ENDBRANCH   5  14
TORSDOF 2
