REMARK  2 active torsions:
REMARK  status: ('A' for Active; 'I' for Inactive)
REMARK    1  A    between atoms: C_5  and  O_6 
REMARK    2  A    between atoms: C_7  and  C_8 
ROOT
HETATM    1  O   UNL     1       1.885  -0.608  -1.248  1.00  0.00    -0.259 OA
HETATM    2  C   UNL     1       0.923  -0.194  -0.628  1.00  0.00     0.297 A 
HETATM    3  O   UNL     1       0.656   1.124  -0.388  1.00  0.00    -0.311 OA
HETATM    4  C   UNL     1      -0.565   1.233   0.341  1.00  0.00     0.244 A 
HETATM    5  C   UNL     1      -1.001  -0.167   0.510  1.00  0.00     0.084 A 
HETATM    6  C   UNL     1      -0.144  -1.022  -0.044  1.00  0.00     0.082 A 
ENDROOT
BRANCH   6   7
HETATM    7  C   UNL     1      -0.216  -2.475  -0.087  1.00  0.00     0.004 A 
HETATM    8  C   UNL     1      -0.866  -3.082  -1.173  1.00  0.00     0.016 A 
HETATM    9  C   UNL     1      -0.965  -4.473  -1.252  1.00  0.00     0.025 A 
HETATM   10  C   UNL     1      -0.416  -5.265  -0.246  1.00  0.00     0.035 A 
HETATM   11 CL   UNL     1      -0.541  -6.978  -0.347  1.00  0.00    -0.084 Cl
HETATM   12  C   UNL     1       0.230  -4.681   0.841  1.00  0.00     0.048 A 
HETATM   13  C   UNL     1       0.327  -3.289   0.921  1.00  0.00     0.047 A 
HETATM   14 CL   UNL     1       1.128  -2.617   2.300  1.00  0.00    -0.083 Cl
ENDBRANCH   6   7
BRANCH   5  15
HETATM   15  O   UNL     1      -2.155  -0.505   1.166  1.00  0.00    -0.362 OA
HETATM   16  H   UNL     1      -2.564   0.295   1.540  1.00  0.00     0.217 HD
ENDBRANCH   5  15
TORSDOF 2
