REMARK  4 active torsions:
REMARK  status: ('A' for Active; 'I' for Inactive)
REMARK    1  A    between atoms: O_2  and  C_3 
REMARK    2  A    between atoms: C_6  and  C_7 
REMARK    3  A    between atoms: C_8  and  O_9 
REMARK    4  A    between atoms: C_15  and  O_16 
ROOT
HETATM    1  C   UNL     1       2.977   1.256  -0.199  1.00  0.00     0.101 A 
HETATM    2  C   UNL     1       2.622   2.462   0.422  1.00  0.00     0.040 A 
HETATM    3  C   UNL     1       3.357   3.629   0.198  1.00  0.00     0.015 A 
HETATM    4  C   UNL     1       4.468   3.612  -0.645  1.00  0.00    -0.015 A 
HETATM    5  C   UNL     1       4.841   2.410  -1.253  1.00  0.00     0.052 A 
HETATM    6  C   UNL     1       4.097   1.236  -1.049  1.00  0.00     0.102 A 
ENDROOT
BRANCH   4   7
HETATM    7  C   UNL     1       5.223   4.835  -0.860  1.00  0.00     0.081 A 
HETATM    8  C   UNL     1       6.262   5.308  -0.170  1.00  0.00     0.084 A 
HETATM    9  C   UNL     1       6.685   6.635  -0.653  1.00  0.00     0.244 A 
HETATM   10  O   UNL     1       5.793   6.905  -1.736  1.00  0.00    -0.311 OA
HETATM   11  C   UNL     1       4.922   5.864  -1.871  1.00  0.00     0.297 A 
HETATM   12  O   UNL     1       4.029   5.806  -2.698  1.00  0.00    -0.259 OA
BRANCH   8  13
HETATM   13  O   UNL     1       6.903   4.727   0.889  1.00  0.00    -0.362 OA
HETATM   14  H   UNL     1       6.521   3.841   1.042  1.00  0.00     0.217 HD
ENDBRANCH   8  13
ENDBRANCH   4   7
BRANCH   6  15
HETATM   15  O   UNL     1       4.614   0.150  -1.709  1.00  0.00    -0.353 OA
HETATM   16  C   UNL     1       3.683  -0.832  -2.152  1.00  0.00     0.210 C 
ENDBRANCH   6  15
BRANCH   1  17
HETATM   17  O   UNL     1       2.321   0.080   0.050  1.00  0.00    -0.353 OA
HETATM   18  C   UNL     1       0.971   0.179   0.490  1.00  0.00     0.210 C 
ENDBRANCH   1  17
TORSDOF 4
