REMARK  2 active torsions:
REMARK  status: ('A' for Active; 'I' for Inactive)
REMARK    1  A    between atoms: C_5  and  O_6 
REMARK    2  A    between atoms: C_7  and  C_8 
ROOT
HETATM    1  O   UNL     1       1.941  -0.689   1.067  1.00  0.00    -0.259 OA
HETATM    2  C   UNL     1       0.940  -0.244   0.533  1.00  0.00     0.297 A 
HETATM    3  O   UNL     1       0.674   1.091   0.413  1.00  0.00    -0.311 OA
HETATM    4  C   UNL     1      -0.565   1.261  -0.259  1.00  0.00     0.244 A 
HETATM    5  C   UNL     1      -1.021  -0.118  -0.519  1.00  0.00     0.084 A 
HETATM    6  C   UNL     1      -0.155  -1.035  -0.075  1.00  0.00     0.081 A 
ENDROOT
BRANCH   6   7
HETATM    7  C   UNL     1      -0.249  -2.500  -0.131  1.00  0.00    -0.017 A 
HETATM    8  C   UNL     1      -0.915  -3.142  -1.190  1.00  0.00     0.015 A 
HETATM    9  C   UNL     1      -1.010  -4.535  -1.246  1.00  0.00     0.043 A 
HETATM   10  C   UNL     1      -0.430  -5.300  -0.245  1.00  0.00     0.116 A 
HETATM   11  F   UNL     1      -0.522  -6.635  -0.297  1.00  0.00    -0.206 F 
HETATM   12  C   UNL     1       0.245  -4.698   0.807  1.00  0.00     0.043 A 
HETATM   13  C   UNL     1       0.336  -3.303   0.862  1.00  0.00     0.015 A 
ENDBRANCH   6   7
BRANCH   5  14
HETATM   14  O   UNL     1      -2.224  -0.365  -1.130  1.00  0.00    -0.362 OA
HETATM   15  H   UNL     1      -2.687   0.475  -1.293  1.00  0.00     0.217 HD
ENDBRANCH   5  14
TORSDOF 2
