REMARK  16 active torsions:
REMARK  status: ('A' for Active; 'I' for Inactive)
REMARK    1  A    between atoms: C_2  and  C_3 
REMARK    2  A    between atoms: C_3  and  C_4 
REMARK    3  A    between atoms: C_4  and  C_5 
REMARK    4  A    between atoms: C_5  and  C_6 
REMARK    5  A    between atoms: C_6  and  C_7 
REMARK    6  A    between atoms: C_7  and  C_8 
REMARK    7  A    between atoms: C_8  and  C_9 
REMARK    8  A    between atoms: C_9  and  C_10 
REMARK    9  A    between atoms: C_10  and  C_11 
REMARK   10  A    between atoms: C_11  and  C_12 
REMARK   11  A    between atoms: C_12  and  C_13 
REMARK   12  A    between atoms: C_13  and  C_14 
REMARK   13  A    between atoms: C_14  and  C_15 
REMARK   14  A    between atoms: C_18  and  O_19 
REMARK   15  A    between atoms: C_20  and  O_21 
REMARK   16  A    between atoms: C_22  and  O_23 
ROOT
HETATM    1  C   UNL     1      13.111   7.952   3.411  1.00  0.00     0.005 C 
ENDROOT
BRANCH   1   2
HETATM    2  C   UNL     1      12.611   6.632   2.846  1.00  0.00     0.000 C 
BRANCH   2   3
HETATM    3  C   UNL     1      11.086   6.629   2.838  1.00  0.00     0.000 C 
BRANCH   3   4
HETATM    4  C   UNL     1      10.562   5.324   2.273  1.00  0.00     0.000 C 
BRANCH   4   5
HETATM    5  C   UNL     1       9.042   5.330   2.272  1.00  0.00     0.000 C 
BRANCH   5   6
HETATM    6  C   UNL     1       8.522   4.021   1.705  1.00  0.00     0.000 C 
BRANCH   6   7
HETATM    7  C   UNL     1       7.003   4.017   1.698  1.00  0.00     0.000 C 
BRANCH   7   8
HETATM    8  C   UNL     1       6.489   2.704   1.130  1.00  0.00     0.000 C 
BRANCH   8   9
HETATM    9  C   UNL     1       4.969   2.695   1.121  1.00  0.00     0.000 C 
BRANCH   9  10
HETATM   10  C   UNL     1       4.450   1.382   0.553  1.00  0.00     0.000 C 
BRANCH  10  11
HETATM   11  C   UNL     1       2.927   1.373   0.544  1.00  0.00    -0.000 C 
BRANCH  11  12
HETATM   12  C   UNL     1       2.394   0.062  -0.021  1.00  0.00    -0.005 C 
HETATM   13  C   UNL     1       0.877   0.056  -0.029  1.00  0.00     0.005 C 
ENDBRANCH  11  12
ENDBRANCH  10  11
ENDBRANCH   9  10
ENDBRANCH   8   9
ENDBRANCH   7   8
ENDBRANCH   6   7
ENDBRANCH   5   6
ENDBRANCH   4   5
ENDBRANCH   3   4
ENDBRANCH   2   3
ENDBRANCH   1   2
BRANCH   1  14
HETATM   14  C   UNL     1      14.635   7.998   3.445  1.00  0.00     0.041 C 
BRANCH  14  15
HETATM   15  C   UNL     1      15.128   9.303   4.003  1.00  0.00    -0.022 A 
HETATM   16  C   UNL     1      15.342  10.408   3.158  1.00  0.00     0.013 A 
HETATM   17  C   UNL     1      15.730  11.653   3.672  1.00  0.00     0.040 A 
HETATM   18  C   UNL     1      15.919  11.796   5.042  1.00  0.00     0.101 A 
HETATM   19  C   UNL     1      15.730  10.704   5.878  1.00  0.00     0.133 A 
HETATM   20  C   UNL     1      15.337   9.475   5.372  1.00  0.00     0.107 A 
BRANCH  18  21
HETATM   21  O   UNL     1      16.287  12.983   5.606  1.00  0.00    -0.358 OA
HETATM   22  H   UNL     1      16.359  13.646   4.897  1.00  0.00     0.217 HD
ENDBRANCH  18  21
BRANCH  19  23
HETATM   23  O   UNL     1      15.912  10.785   7.231  1.00  0.00    -0.356 OA
HETATM   24  H   UNL     1      16.172  11.718   7.375  1.00  0.00     0.218 HD
ENDBRANCH  19  23
BRANCH  20  25
HETATM   25  O   UNL     1      15.164   8.463   6.267  1.00  0.00    -0.357 OA
HETATM   26  H   UNL     1      15.389   8.859   7.136  1.00  0.00     0.217 HD
ENDBRANCH  20  25
ENDBRANCH  14  15
ENDBRANCH   1  14
TORSDOF 16
