REMARK  14 active torsions:
REMARK  status: ('A' for Active; 'I' for Inactive)
REMARK    1  A    between atoms: C_2  and  C_3 
REMARK    2  A    between atoms: C_3  and  C_4 
REMARK    3  A    between atoms: C_4  and  C_5 
REMARK    4  A    between atoms: C_5  and  C_6 
REMARK    5  A    between atoms: C_6  and  C_7 
REMARK    6  A    between atoms: C_7  and  C_8 
REMARK    7  A    between atoms: C_8  and  C_9 
REMARK    8  A    between atoms: C_9  and  C_10 
REMARK    9  A    between atoms: C_10  and  C_11 
REMARK   10  A    between atoms: C_11  and  C_12 
REMARK   11  A    between atoms: C_12  and  C_13 
REMARK   12  A    between atoms: C_16  and  O_17 
REMARK   13  A    between atoms: C_18  and  O_19 
REMARK   14  A    between atoms: C_20  and  O_21 
ROOT
HETATM    1  C   UNL     1      13.129   7.971   3.456  1.00  0.00    -0.022 A 
HETATM    2  C   UNL     1      13.329   9.072   2.603  1.00  0.00     0.013 A 
HETATM    3  C   UNL     1      13.720  10.316   3.114  1.00  0.00     0.040 A 
HETATM    4  C   UNL     1      13.906  10.460   4.483  1.00  0.00     0.101 A 
HETATM    5  C   UNL     1      13.710   9.379   5.334  1.00  0.00     0.133 A 
HETATM    6  C   UNL     1      13.322   8.145   4.828  1.00  0.00     0.107 A 
ENDROOT
BRANCH   1   7
HETATM    7  C   UNL     1      12.637   6.665   2.893  1.00  0.00     0.041 C 
BRANCH   7   8
HETATM    8  C   UNL     1      11.111   6.641   2.873  1.00  0.00     0.005 C 
BRANCH   8   9
HETATM    9  C   UNL     1      10.591   5.329   2.302  1.00  0.00     0.000 C 
BRANCH   9  10
HETATM   10  C   UNL     1       9.067   5.322   2.291  1.00  0.00     0.000 C 
BRANCH  10  11
HETATM   11  C   UNL     1       8.540   4.013   1.721  1.00  0.00     0.000 C 
BRANCH  11  12
HETATM   12  C   UNL     1       7.017   4.009   1.710  1.00  0.00     0.000 C 
BRANCH  12  13
HETATM   13  C   UNL     1       6.492   2.700   1.138  1.00  0.00     0.000 C 
BRANCH  13  14
HETATM   14  C   UNL     1       4.969   2.692   1.125  1.00  0.00     0.000 C 
BRANCH  14  15
HETATM   15  C   UNL     1       4.443   1.380   0.552  1.00  0.00     0.000 C 
BRANCH  15  16
HETATM   16  C   UNL     1       2.921   1.371   0.538  1.00  0.00    -0.000 C 
BRANCH  16  17
HETATM   17  C   UNL     1       2.386   0.063  -0.035  1.00  0.00    -0.005 C 
HETATM   18  C   UNL     1       0.867   0.055  -0.048  1.00  0.00     0.005 C 
ENDBRANCH  16  17
ENDBRANCH  15  16
ENDBRANCH  14  15
ENDBRANCH  13  14
ENDBRANCH  12  13
ENDBRANCH  11  12
ENDBRANCH  10  11
ENDBRANCH   9  10
ENDBRANCH   8   9
ENDBRANCH   7   8
ENDBRANCH   1   7
BRANCH   6  19
HETATM   19  O   UNL     1      13.114   7.107   5.695  1.00  0.00    -0.357 OA
HETATM   20  H   UNL     1      13.306   7.486   6.577  1.00  0.00     0.217 HD
ENDBRANCH   6  19
BRANCH   5  21
HETATM   21  O   UNL     1      13.885   9.514   6.686  1.00  0.00    -0.356 OA
HETATM   22  H   UNL     1      14.148  10.450   6.797  1.00  0.00     0.218 HD
ENDBRANCH   5  21
BRANCH   4  23
HETATM   23  O   UNL     1      14.275  11.653   5.040  1.00  0.00    -0.358 OA
HETATM   24  H   UNL     1      14.352  12.307   4.325  1.00  0.00     0.217 HD
ENDBRANCH   4  23
TORSDOF 14
