REMARK  2 active torsions:
REMARK  status: ('A' for Active; 'I' for Inactive)
REMARK    1  A    between atoms: C_5  and  O_6 
REMARK    2  A    between atoms: C_7  and  C_8 
ROOT
HETATM    1  O   UNL     1       1.936  -0.609  -1.141  1.00  0.00    -0.259 OA
HETATM    2  C   UNL     1       0.932  -0.202  -0.588  1.00  0.00     0.297 A 
HETATM    3  O   UNL     1       0.661   1.114  -0.336  1.00  0.00    -0.311 OA
HETATM    4  C   UNL     1      -0.579   1.215   0.357  1.00  0.00     0.244 A 
HETATM    5  C   UNL     1      -1.006  -0.187   0.524  1.00  0.00     0.084 A 
HETATM    6  C   UNL     1      -0.158  -1.037  -0.053  1.00  0.00     0.082 A 
ENDROOT
BRANCH   6   7
HETATM    7  C   UNL     1      -0.255  -2.488  -0.151  1.00  0.00     0.004 A 
HETATM    8  C   UNL     1       0.301  -3.277   0.868  1.00  0.00     0.014 A 
HETATM    9  C   UNL     1       0.190  -4.670   0.833  1.00  0.00     0.001 A 
HETATM   10  C   UNL     1      -0.482  -5.293  -0.216  1.00  0.00     0.002 A 
HETATM   11  C   UNL     1      -1.028  -4.524  -1.244  1.00  0.00     0.024 A 
HETATM   12  C   UNL     1      -0.907  -3.130  -1.218  1.00  0.00     0.045 A 
HETATM   13 CL   UNL     1      -1.569  -2.245  -2.551  1.00  0.00    -0.083 Cl
ENDBRANCH   6   7
BRANCH   5  14
HETATM   14  O   UNL     1      -2.157  -0.529   1.185  1.00  0.00    -0.362 OA
HETATM   15  H   UNL     1      -2.640   0.279   1.435  1.00  0.00     0.217 HD
ENDBRANCH   5  14
TORSDOF 2
