REMARK  6 active torsions:
REMARK  status: ('A' for Active; 'I' for Inactive)
REMARK    1  A    between atoms: C_2  and  O_3 
REMARK    2  A    between atoms: O_3  and  C_4 
REMARK    3  A    between atoms: C_7  and  C_8 
REMARK    4  A    between atoms: C_9  and  O_10 
REMARK    5  A    between atoms: C_16  and  O_17 
REMARK    6  A    between atoms: O_17  and  C_18 
ROOT
HETATM    1  C   UNL     1       4.361   0.962  -1.345  1.00  0.00     0.102 A 
HETATM    2  C   UNL     1       5.261  -0.113  -1.368  1.00  0.00     0.040 A 
HETATM    3  C   UNL     1       6.620   0.089  -1.618  1.00  0.00     0.015 A 
HETATM    4  C   UNL     1       7.110   1.372  -1.855  1.00  0.00    -0.015 A 
HETATM    5  C   UNL     1       6.226   2.453  -1.822  1.00  0.00     0.052 A 
HETATM    6  C   UNL     1       4.861   2.262  -1.538  1.00  0.00     0.102 A 
ENDROOT
BRANCH   4   7
HETATM    7  C   UNL     1       8.524   1.550  -2.137  1.00  0.00     0.081 A 
HETATM    8  C   UNL     1       9.152   1.502  -3.311  1.00  0.00     0.084 A 
HETATM    9  C   UNL     1      10.615   1.625  -3.159  1.00  0.00     0.244 A 
HETATM   10  O   UNL     1      10.799   1.766  -1.750  1.00  0.00    -0.311 OA
HETATM   11  C   UNL     1       9.586   1.715  -1.129  1.00  0.00     0.297 A 
HETATM   12  O   UNL     1       9.417   1.784   0.075  1.00  0.00    -0.259 OA
BRANCH   8  13
HETATM   13  O   UNL     1       8.605   1.321  -4.553  1.00  0.00    -0.362 OA
HETATM   14  H   UNL     1       7.634   1.282  -4.465  1.00  0.00     0.217 HD
ENDBRANCH   8  13
ENDBRANCH   4   7
BRANCH   6  15
HETATM   15  O   UNL     1       4.147   3.434  -1.527  1.00  0.00    -0.349 OA
BRANCH  15  16
HETATM   16  C   UNL     1       3.031   3.499  -0.637  1.00  0.00     0.171 C 
HETATM   17  C   UNL     1       2.848   4.947  -0.210  1.00  0.00     0.034 C 
ENDBRANCH  15  16
ENDBRANCH   6  15
BRANCH   1  18
HETATM   18  O   UNL     1       3.009   0.799  -1.167  1.00  0.00    -0.349 OA
BRANCH  18  19
HETATM   19  C   UNL     1       2.517  -0.540  -1.102  1.00  0.00     0.171 C 
HETATM   20  C   UNL     1       1.004  -0.510  -0.995  1.00  0.00     0.034 C 
ENDBRANCH  18  19
ENDBRANCH   1  18
TORSDOF 6
