REMARK  5 active torsions:
REMARK  status: ('A' for Active; 'I' for Inactive)
REMARK    1  A    between atoms: C_5  and  O_6 
REMARK    2  A    between atoms: C_7  and  C_8 
REMARK    3  A    between atoms: C_12  and  O_13 
REMARK    4  A    between atoms: O_13  and  C_14 
REMARK    5  A    between atoms: C_14  and  C_15 
ROOT
HETATM    1  C   UNL     1      -0.240  -2.460  -0.155  1.00  0.00    -0.015 A 
HETATM    2  C   UNL     1      -0.907  -3.106  -1.204  1.00  0.00     0.012 A 
HETATM    3  C   UNL     1      -0.920  -4.500  -1.295  1.00  0.00     0.004 A 
HETATM    4  C   UNL     1      -0.232  -5.267  -0.357  1.00  0.00     0.037 A 
HETATM    5  C   UNL     1       0.464  -4.640   0.674  1.00  0.00     0.070 A 
HETATM    6  C   UNL     1       0.410  -3.250   0.797  1.00  0.00     0.049 A 
ENDROOT
BRANCH   1   7
HETATM    7  C   UNL     1      -0.157  -1.003  -0.064  1.00  0.00     0.081 A 
HETATM    8  C   UNL     1       0.967  -0.220   0.512  1.00  0.00     0.297 A 
HETATM    9  O   UNL     1       1.990  -0.670   0.994  1.00  0.00    -0.259 OA
HETATM   10  O   UNL     1       0.691   1.114   0.425  1.00  0.00    -0.311 OA
HETATM   11  C   UNL     1      -0.577   1.290  -0.196  1.00  0.00     0.244 A 
HETATM   12  C   UNL     1      -1.042  -0.085  -0.453  1.00  0.00     0.084 A 
BRANCH  12  13
HETATM   13  O   UNL     1      -2.266  -0.336  -1.019  1.00  0.00    -0.362 OA
HETATM   14  H   UNL     1      -2.743   0.502  -1.151  1.00  0.00     0.217 HD
ENDBRANCH  12  13
ENDBRANCH   1   7
BRANCH   5  15
HETATM   15  O   UNL     1       1.194  -5.449   1.507  1.00  0.00    -0.347 OA
BRANCH  15  16
HETATM   16  C   UNL     1       2.298  -4.780   2.130  1.00  0.00     0.214 C 
BRANCH  16  17
HETATM   17  C   UNL     1       3.326  -5.782   2.579  1.00  0.00    -0.034 A 
HETATM   18  C   UNL     1       4.628  -5.733   2.060  1.00  0.00     0.009 A 
HETATM   19  C   UNL     1       5.598  -6.630   2.505  1.00  0.00     0.001 A 
HETATM   20  C   UNL     1       5.274  -7.580   3.471  1.00  0.00     0.000 A 
HETATM   21  C   UNL     1       3.981  -7.638   3.990  1.00  0.00     0.001 A 
HETATM   22  C   UNL     1       3.009  -6.742   3.546  1.00  0.00     0.009 A 
ENDBRANCH  16  17
ENDBRANCH  15  16
ENDBRANCH   5  15
TORSDOF 5
