REMARK  2 active torsions:
REMARK  status: ('A' for Active; 'I' for Inactive)
REMARK    1  A    between atoms: C_5  and  O_6 
REMARK    2  A    between atoms: C_7  and  C_8 
ROOT
HETATM    1  O   UNL     1      -2.170  -0.349  -1.148  1.00  0.00    -0.259 OA
HETATM    2  C   UNL     1      -1.138  -0.067  -0.566  1.00  0.00     0.297 A 
HETATM    3  O   UNL     1      -0.727   1.211  -0.317  1.00  0.00    -0.311 OA
HETATM    4  C   UNL     1       0.513   1.177   0.377  1.00  0.00     0.244 A 
HETATM    5  C   UNL     1       0.806  -0.262   0.508  1.00  0.00     0.084 A 
HETATM    6  C   UNL     1      -0.149  -1.030  -0.025  1.00  0.00     0.081 A 
ENDROOT
BRANCH   6   7
HETATM    7  C   UNL     1      -0.219  -2.494  -0.105  1.00  0.00    -0.016 A 
HETATM    8  C   UNL     1      -0.864  -3.131  -1.175  1.00  0.00     0.014 A 
HETATM    9  C   UNL     1      -0.927  -4.527  -1.253  1.00  0.00     0.026 A 
HETATM   10  C   UNL     1      -0.348  -5.314  -0.257  1.00  0.00     0.055 A 
HETATM   11 CL   UNL     1      -0.452  -7.030  -0.421  1.00  0.00    -0.083 Cl
HETATM   12  C   UNL     1       0.288  -4.699   0.823  1.00  0.00     0.056 A 
HETATM   13 CL   UNL     1       1.021  -5.601   2.103  1.00  0.00    -0.083 Cl
HETATM   14  C   UNL     1       0.346  -3.301   0.896  1.00  0.00     0.038 A 
ENDBRANCH   6   7
BRANCH   5  15
HETATM   15  O   UNL     1       1.962  -0.704   1.098  1.00  0.00    -0.362 OA
HETATM   16  H   UNL     1       2.511   0.058   1.357  1.00  0.00     0.217 HD
ENDBRANCH   5  15
TORSDOF 2
