REMARK  5 active torsions:
REMARK  status: ('A' for Active; 'I' for Inactive)
REMARK    1  A    between atoms: N_2  and  C_4 
REMARK    2  A    between atoms: C_7  and  C_8 
REMARK    3  A    between atoms: C_8  and  N_9 
REMARK    4  A    between atoms: N_9  and  C_10 
REMARK    5  A    between atoms: C_13  and  N_14 
ROOT
HETATM    1  N   UNL     1       4.775   3.138   4.922  1.00  0.00    -0.386 N 
HETATM    2  H   UNL     1       3.758   3.094   4.958  1.00  0.00     0.160 HD
ENDROOT
BRANCH   1   3
HETATM    3  C   UNL     1       5.287   3.214   3.561  1.00  0.00     0.158 C 
BRANCH   3   4
HETATM    4  C   UNL     1       4.505   2.290   2.652  1.00  0.00    -0.040 A 
HETATM    5  C   UNL     1       3.818   2.799   1.539  1.00  0.00     0.011 A 
HETATM    6  C   UNL     1       3.140   1.944   0.666  1.00  0.00     0.037 A 
HETATM    7  C   UNL     1       3.146   0.564   0.907  1.00  0.00     0.102 A 
HETATM    8  C   UNL     1       3.816   0.039   2.020  1.00  0.00     0.037 A 
HETATM    9  C   UNL     1       4.492   0.904   2.886  1.00  0.00     0.011 A 
BRANCH   7  10
HETATM   10  N   UNL     1       2.452  -0.338  -0.020  1.00  0.00    -0.116 N 
HETATM   11  O   UNL     1       1.874   0.167  -0.993  1.00  0.00    -0.532 OA
HETATM   12  O   UNL     1       2.488  -1.552   0.223  1.00  0.00    -0.532 OA
ENDBRANCH   7  10
ENDBRANCH   3   4
ENDBRANCH   1   3
BRANCH   1  13
HETATM   13  C   UNL     1       5.295   3.969   5.918  1.00  0.00     0.028 A 
HETATM   14  C   UNL     1       6.460   4.732   5.769  1.00  0.00     0.031 A 
HETATM   15  C   UNL     1       6.953   5.521   6.817  1.00  0.00     0.038 A 
HETATM   16  C   UNL     1       6.298   5.518   8.052  1.00  0.00     0.103 A 
HETATM   17  C   UNL     1       5.170   4.716   8.246  1.00  0.00     0.038 A 
HETATM   18  C   UNL     1       4.685   3.945   7.184  1.00  0.00     0.031 A 
BRANCH  16  19
HETATM   19  N   UNL     1       6.797   6.359   9.146  1.00  0.00    -0.116 N 
HETATM   20  O   UNL     1       7.789   7.067   8.922  1.00  0.00    -0.532 OA
HETATM   21  O   UNL     1       6.193   6.317  10.228  1.00  0.00    -0.532 OA
ENDBRANCH  16  19
ENDBRANCH   1  13
TORSDOF 5
