REMARK  6 active torsions:
REMARK  status: ('A' for Active; 'I' for Inactive)
REMARK    1  A    between atoms: N_2  and  C_4 
REMARK    2  A    between atoms: C_8  and  N_9 
REMARK    3  A    between atoms: N_9  and  C_10 
REMARK    4  A    between atoms: C_10  and  C_11 
REMARK    5  A    between atoms: C_14  and  O_15 
REMARK    6  A    between atoms: C_16  and  O_17 
ROOT
HETATM    1  N   UNL     1       5.971  -0.258  -3.300  1.00  0.00    -0.289 NA
HETATM    2  H   UNL     1       6.441  -0.537  -2.440  1.00  0.00     0.128 HD
ENDROOT
BRANCH   1   3
HETATM    3  C   UNL     1       4.696   0.271  -3.060  1.00  0.00     0.010 A 
HETATM    4  C   UNL     1       3.989   1.029  -4.003  1.00  0.00     0.023 A 
HETATM    5  C   UNL     1       2.688   1.486  -3.752  1.00  0.00     0.004 A 
HETATM    6  C   UNL     1       2.056   1.169  -2.554  1.00  0.00     0.036 A 
HETATM    7  C   UNL     1       2.731   0.373  -1.621  1.00  0.00     0.104 A 
HETATM    8  C   UNL     1       4.031  -0.089  -1.880  1.00  0.00     0.059 A 
BRANCH   7   9
HETATM    9  N   UNL     1       2.073   0.021  -0.360  1.00  0.00    -0.116 N 
HETATM   10  O   UNL     1       0.923   0.447  -0.168  1.00  0.00    -0.532 OA
HETATM   11  O   UNL     1       2.705  -0.677   0.448  1.00  0.00    -0.532 OA
ENDBRANCH   7   9
ENDBRANCH   1   3
BRANCH   1  12
HETATM   12  C   UNL     1       6.880   0.472  -4.180  1.00  0.00     0.131 C 
BRANCH  12  13
HETATM   13  C   UNL     1       8.201  -0.260  -4.276  1.00  0.00    -0.042 A 
HETATM   14  C   UNL     1       8.251  -1.573  -4.781  1.00  0.00     0.011 A 
HETATM   15  C   UNL     1       9.471  -2.244  -4.924  1.00  0.00     0.040 A 
HETATM   16  C   UNL     1      10.645  -1.589  -4.578  1.00  0.00     0.098 A 
HETATM   17  C   UNL     1      10.606  -0.287  -4.086  1.00  0.00     0.099 A 
HETATM   18  C   UNL     1       9.398   0.377  -3.916  1.00  0.00     0.047 A 
BRANCH  16  19
HETATM   19  O   UNL     1      11.870  -2.184  -4.708  1.00  0.00    -0.358 OA
HETATM   20  H   UNL     1      11.727  -3.111  -4.968  1.00  0.00     0.217 HD
ENDBRANCH  16  19
BRANCH  17  21
HETATM   21  O   UNL     1      11.768   0.361  -3.781  1.00  0.00    -0.358 OA
HETATM   22  H   UNL     1      12.473  -0.262  -4.048  1.00  0.00     0.217 HD
ENDBRANCH  17  21
ENDBRANCH  12  13
ENDBRANCH   1  12
TORSDOF 6
