REMARK  5 active torsions:
REMARK  status: ('A' for Active; 'I' for Inactive)
REMARK    1  A    between atoms: O_2  and  C_3 
REMARK    2  A    between atoms: C_6  and  N_7 
REMARK    3  A    between atoms: N_7  and  C_8 
REMARK    4  A    between atoms: C_8  and  C_9 
REMARK    5  A    between atoms: C_13  and  N_14 
ROOT
HETATM    1  N   UNL     1       5.408   2.539   3.892  1.00  0.00    -0.289 NA
HETATM    2  H   UNL     1       5.966   3.291   3.492  1.00  0.00     0.128 HD
ENDROOT
BRANCH   1   3
HETATM    3  C   UNL     1       4.542   2.003   2.937  1.00  0.00     0.008 A 
HETATM    4  C   UNL     1       3.185   2.319   2.852  1.00  0.00     0.026 A 
HETATM    5  C   UNL     1       2.368   1.730   1.879  1.00  0.00     0.038 A 
HETATM    6  C   UNL     1       2.904   0.825   0.965  1.00  0.00     0.068 A 
HETATM    7  C   UNL     1       4.272   0.559   0.999  1.00  0.00     0.038 A 
HETATM    8  C   UNL     1       5.086   1.159   1.964  1.00  0.00     0.026 A 
BRANCH   6   9
HETATM    9  O   UNL     1       2.211   0.145   0.003  1.00  0.00    -0.356 OA
HETATM   10  C   UNL     1       0.799   0.319  -0.010  1.00  0.00     0.210 C 
ENDBRANCH   6   9
ENDBRANCH   1   3
BRANCH   1  11
HETATM   11  C   UNL     1       4.863   2.893   5.196  1.00  0.00     0.131 C 
BRANCH  11  12
HETATM   12  C   UNL     1       5.970   2.796   6.220  1.00  0.00    -0.043 A 
HETATM   13  C   UNL     1       6.622   1.568   6.429  1.00  0.00     0.008 A 
HETATM   14  C   UNL     1       7.653   1.449   7.362  1.00  0.00     0.003 A 
HETATM   15  C   UNL     1       8.048   2.560   8.106  1.00  0.00     0.036 A 
HETATM   16  C   UNL     1       7.399   3.785   7.909  1.00  0.00     0.103 A 
HETATM   17  C   UNL     1       6.359   3.910   6.975  1.00  0.00     0.044 A 
BRANCH  16  18
HETATM   18  N   UNL     1       7.815   4.958   8.687  1.00  0.00    -0.116 N 
HETATM   19  O   UNL     1       8.793   4.836   9.441  1.00  0.00    -0.532 OA
HETATM   20  O   UNL     1       7.167   6.005   8.543  1.00  0.00    -0.532 OA
ENDBRANCH  16  18
ENDBRANCH  11  12
ENDBRANCH   1  11
TORSDOF 5
