REMARK  4 active torsions:
REMARK  status: ('A' for Active; 'I' for Inactive)
REMARK    1  A    between atoms: N_2  and  C_4 
REMARK    2  A    between atoms: C_7  and  C_8 
REMARK    3  A    between atoms: C_8  and  N_9 
REMARK    4  A    between atoms: N_9  and  C_10 
ROOT
HETATM    1  C   UNL     1       5.441   4.974  -0.529  1.00  0.00     0.131 C 
ENDROOT
BRANCH   1   2
HETATM    2  C   UNL     1       4.726   3.657  -0.352  1.00  0.00    -0.045 A 
HETATM    3  C   UNL     1       3.565   3.554   0.423  1.00  0.00     0.010 A 
HETATM    4  C   UNL     1       2.848   2.347   0.489  1.00  0.00     0.030 A 
HETATM    5  C   UNL     1       3.271   1.188  -0.189  1.00  0.00     0.029 A 
HETATM    6  C   UNL     1       4.456   1.312  -0.936  1.00  0.00     0.030 A 
HETATM    7  C   UNL     1       5.175   2.515  -1.008  1.00  0.00     0.010 A 
BRANCH   5   8
HETATM    8  N   UNL     1       2.557  -0.012  -0.155  1.00  0.00    -0.390 N 
HETATM    9  C   UNL     1       1.299  -0.110   0.577  1.00  0.00     0.149 C 
HETATM   10  C   UNL     1       3.282  -1.257  -0.392  1.00  0.00     0.149 C 
ENDBRANCH   5   8
ENDBRANCH   1   2
BRANCH   1  11
HETATM   11  N   UNL     1       6.455   5.170   0.496  1.00  0.00    -0.289 NA
HETATM   12  H   UNL     1       6.123   4.918   1.425  1.00  0.00     0.128 HD
BRANCH  11  13
HETATM   13  C   UNL     1       7.190   6.362   0.525  1.00  0.00     0.008 A 
HETATM   14  C   UNL     1       7.160   7.327  -0.491  1.00  0.00     0.025 A 
HETATM   15  C   UNL     1       7.923   8.498  -0.403  1.00  0.00     0.025 A 
HETATM   16  C   UNL     1       8.764   8.697   0.686  1.00  0.00     0.034 A 
HETATM   17 CL   UNL     1       9.683  10.146   0.806  1.00  0.00    -0.084 Cl
HETATM   18  C   UNL     1       8.863   7.726   1.675  1.00  0.00     0.025 A 
HETATM   19  C   UNL     1       8.088   6.563   1.585  1.00  0.00     0.025 A 
ENDBRANCH  11  13
ENDBRANCH   1  11
TORSDOF 4
