REMARK  5 active torsions:
REMARK  status: ('A' for Active; 'I' for Inactive)
REMARK    1  A    between atoms: N_2  and  C_4 
REMARK    2  A    between atoms: C_7  and  N_8 
REMARK    3  A    between atoms: N_8  and  C_9 
REMARK    4  A    between atoms: C_9  and  C_10 
REMARK    5  A    between atoms: C_13  and  O_14 
ROOT
HETATM    1  N   UNL     1       5.125   4.590  -1.197  1.00  0.00    -0.289 NA
HETATM    2  H   UNL     1       5.520   4.514  -2.133  1.00  0.00     0.128 HD
ENDROOT
BRANCH   1   3
HETATM    3  C   UNL     1       4.341   3.472  -0.895  1.00  0.00     0.008 A 
HETATM    4  C   UNL     1       2.946   3.442  -1.008  1.00  0.00     0.026 A 
HETATM    5  C   UNL     1       2.222   2.290  -0.676  1.00  0.00     0.038 A 
HETATM    6  C   UNL     1       2.905   1.145  -0.249  1.00  0.00     0.102 A 
HETATM    7  C   UNL     1       4.301   1.138  -0.187  1.00  0.00     0.038 A 
HETATM    8  C   UNL     1       5.007   2.294  -0.531  1.00  0.00     0.026 A 
BRANCH   6   9
HETATM    9  N   UNL     1       2.151  -0.053   0.139  1.00  0.00    -0.116 N 
HETATM   10  O   UNL     1       0.915  -0.003   0.070  1.00  0.00    -0.532 OA
HETATM   11  O   UNL     1       2.795  -1.043   0.516  1.00  0.00    -0.532 OA
ENDBRANCH   6   9
ENDBRANCH   1   3
BRANCH   1  12
HETATM   12  C   UNL     1       4.545   5.911  -0.972  1.00  0.00     0.131 C 
BRANCH  12  13
HETATM   13  C   UNL     1       5.616   6.949  -0.701  1.00  0.00    -0.045 A 
HETATM   14  C   UNL     1       5.362   8.293  -1.018  1.00  0.00     0.011 A 
HETATM   15  C   UNL     1       6.289   9.292  -0.706  1.00  0.00     0.037 A 
HETATM   16  C   UNL     1       7.471   8.948  -0.065  1.00  0.00     0.065 A 
HETATM   17  C   UNL     1       7.739   7.630   0.275  1.00  0.00     0.037 A 
HETATM   18  C   UNL     1       6.809   6.633  -0.034  1.00  0.00     0.011 A 
BRANCH  16  19
HETATM   19  O   UNL     1       8.401   9.893   0.261  1.00  0.00    -0.361 OA
HETATM   20  H   UNL     1       8.080  10.759  -0.039  1.00  0.00     0.217 HD
ENDBRANCH  16  19
ENDBRANCH  12  13
ENDBRANCH   1  12
TORSDOF 5
