REMARK  6 active torsions:
REMARK  status: ('A' for Active; 'I' for Inactive)
REMARK    1  A    between atoms: O_2  and  C_3 
REMARK    2  A    between atoms: C_6  and  C_7 
REMARK    3  A    between atoms: C_7  and  N_8 
REMARK    4  A    between atoms: N_8  and  C_9 
REMARK    5  A    between atoms: C_13  and  N_14 
REMARK    6  A    between atoms: C_19  and  O_20 
ROOT
HETATM    1  C   UNL     1       5.506  -1.669   4.502  1.00  0.00     0.158 C 
ENDROOT
BRANCH   1   2
HETATM    2  C   UNL     1       4.695  -1.263   3.290  1.00  0.00    -0.038 A 
HETATM    3  C   UNL     1       3.565  -1.993   2.905  1.00  0.00     0.012 A 
HETATM    4  C   UNL     1       2.799  -1.592   1.804  1.00  0.00     0.040 A 
HETATM    5  C   UNL     1       3.137  -0.451   1.060  1.00  0.00     0.101 A 
HETATM    6  C   UNL     1       4.279   0.279   1.431  1.00  0.00     0.102 A 
HETATM    7  C   UNL     1       5.054  -0.147   2.525  1.00  0.00     0.048 A 
BRANCH   5   8
HETATM    8  O   UNL     1       2.448  -0.065  -0.060  1.00  0.00    -0.353 OA
HETATM    9  C   UNL     1       1.087  -0.471  -0.157  1.00  0.00     0.210 C 
ENDBRANCH   5   8
BRANCH   6  10
HETATM   10  O   UNL     1       4.786   1.393   0.812  1.00  0.00    -0.353 OA
HETATM   11  C   UNL     1       3.847   2.282   0.214  1.00  0.00     0.210 C 
ENDBRANCH   6  10
ENDBRANCH   1   2
BRANCH   1  12
HETATM   12  N   UNL     1       6.543  -2.620   4.128  1.00  0.00    -0.386 N 
HETATM   13  H   UNL     1       6.220  -3.300   3.443  1.00  0.00     0.160 HD
BRANCH  12  14
HETATM   14  C   UNL     1       7.367  -3.203   5.094  1.00  0.00     0.030 A 
HETATM   15  C   UNL     1       7.428  -2.789   6.432  1.00  0.00     0.029 A 
HETATM   16  C   UNL     1       8.283  -3.410   7.353  1.00  0.00     0.005 A 
HETATM   17  C   UNL     1       9.128  -4.438   6.944  1.00  0.00     0.036 A 
HETATM   18  C   UNL     1       9.127  -4.819   5.599  1.00  0.00     0.105 A 
HETATM   19  C   UNL     1       8.271  -4.194   4.679  1.00  0.00     0.065 A 
BRANCH  18  20
HETATM   20  N   UNL     1      10.018  -5.894   5.152  1.00  0.00    -0.116 N 
HETATM   21  O   UNL     1      10.712  -6.462   6.004  1.00  0.00    -0.532 OA
HETATM   22  O   UNL     1      10.013  -6.186   3.944  1.00  0.00    -0.532 OA
ENDBRANCH  18  20
ENDBRANCH  12  14
ENDBRANCH   1  12
TORSDOF 6
