REMARK  6 active torsions:
REMARK  status: ('A' for Active; 'I' for Inactive)
REMARK    1  A    between atoms: O_2  and  C_3 
REMARK    2  A    between atoms: C_6  and  C_7 
REMARK    3  A    between atoms: C_7  and  C_8 
REMARK    4  A    between atoms: C_8  and  C_9 
REMARK    5  A    between atoms: C_12  and  O_13 
REMARK    6  A    between atoms: C_17  and  O_18 
ROOT
HETATM    1  C   UNL     1       3.086   0.077   1.032  1.00  0.00     0.101 A 
HETATM    2  C   UNL     1       2.728  -0.694   2.141  1.00  0.00     0.040 A 
HETATM    3  C   UNL     1       3.460  -0.639   3.327  1.00  0.00     0.010 A 
HETATM    4  C   UNL     1       4.602   0.160   3.429  1.00  0.00    -0.055 A 
HETATM    5  C   UNL     1       4.959   0.933   2.315  1.00  0.00     0.046 A 
HETATM    6  C   UNL     1       4.213   0.911   1.125  1.00  0.00     0.102 A 
ENDROOT
BRANCH   4   7
HETATM    7  C   UNL     1       5.411   0.247   4.707  1.00  0.00     0.043 C 
BRANCH   7   8
HETATM    8  C   UNL     1       5.413  -1.048   5.537  1.00  0.00     0.043 C 
BRANCH   8   9
HETATM    9  C   UNL     1       6.225  -0.997   6.807  1.00  0.00    -0.058 A 
HETATM   10  C   UNL     1       5.935  -0.064   7.814  1.00  0.00     0.010 A 
HETATM   11  C   UNL     1       6.632  -0.086   9.024  1.00  0.00     0.037 A 
HETATM   12  C   UNL     1       7.616  -1.047   9.230  1.00  0.00     0.065 A 
HETATM   13  C   UNL     1       7.915  -1.981   8.246  1.00  0.00     0.037 A 
HETATM   14  C   UNL     1       7.222  -1.955   7.035  1.00  0.00     0.010 A 
BRANCH  12  15
HETATM   15  O   UNL     1       8.312  -1.113  10.400  1.00  0.00    -0.361 OA
HETATM   16  H   UNL     1       8.025  -0.382  10.971  1.00  0.00     0.217 HD
ENDBRANCH  12  15
ENDBRANCH   8   9
ENDBRANCH   7   8
ENDBRANCH   4   7
BRANCH   6  17
HETATM   17  O   UNL     1       4.729   1.719   0.144  1.00  0.00    -0.353 OA
HETATM   18  C   UNL     1       3.798   2.291  -0.768  1.00  0.00     0.210 C 
ENDBRANCH   6  17
BRANCH   1  19
HETATM   19  O   UNL     1       2.416  -0.005  -0.163  1.00  0.00    -0.353 OA
HETATM   20  C   UNL     1       1.058  -0.437  -0.090  1.00  0.00     0.210 C 
ENDBRANCH   1  19
TORSDOF 6
