REMARK  4 active torsions:
REMARK  status: ('A' for Active; 'I' for Inactive)
REMARK    1  A    between atoms: O_2  and  C_3 
REMARK    2  A    between atoms: C_6  and  N_7 
REMARK    3  A    between atoms: N_7  and  C_8 
REMARK    4  A    between atoms: C_8  and  C_9 
ROOT
HETATM    1  N   UNL     1       5.080   3.237  -3.733  1.00  0.00    -0.289 NA
HETATM    2  H   UNL     1       5.610   2.644  -4.369  1.00  0.00     0.128 HD
ENDROOT
BRANCH   1   3
HETATM    3  C   UNL     1       4.301   2.461  -2.868  1.00  0.00     0.008 A 
HETATM    4  C   UNL     1       2.926   2.264  -3.025  1.00  0.00     0.026 A 
HETATM    5  C   UNL     1       2.198   1.496  -2.108  1.00  0.00     0.038 A 
HETATM    6  C   UNL     1       2.840   0.894  -1.030  1.00  0.00     0.068 A 
HETATM    7  C   UNL     1       4.222   1.031  -0.903  1.00  0.00     0.038 A 
HETATM    8  C   UNL     1       4.947   1.792  -1.825  1.00  0.00     0.026 A 
BRANCH   6   9
HETATM    9  O   UNL     1       2.240   0.155  -0.049  1.00  0.00    -0.356 OA
HETATM   10  C   UNL     1       0.822   0.058  -0.102  1.00  0.00     0.210 C 
ENDBRANCH   6   9
ENDBRANCH   1   3
BRANCH   1  11
HETATM   11  C   UNL     1       4.426   4.333  -4.433  1.00  0.00     0.131 C 
BRANCH  11  12
HETATM   12  C   UNL     1       5.446   5.377  -4.823  1.00  0.00    -0.045 A 
HETATM   13  C   UNL     1       5.549   5.822  -6.147  1.00  0.00     0.010 A 
HETATM   14  C   UNL     1       6.452   6.833  -6.485  1.00  0.00     0.024 A 
HETATM   15  C   UNL     1       7.253   7.407  -5.499  1.00  0.00     0.034 A 
HETATM   16 CL   UNL     1       8.351   8.665  -5.917  1.00  0.00    -0.084 Cl
HETATM   17  C   UNL     1       7.165   6.976  -4.179  1.00  0.00     0.024 A 
HETATM   18  C   UNL     1       6.260   5.968  -3.842  1.00  0.00     0.010 A 
ENDBRANCH  11  12
ENDBRANCH   1  11
TORSDOF 4
