REMARK  5 active torsions:
REMARK  status: ('A' for Active; 'I' for Inactive)
REMARK    1  A    between atoms: N_2  and  C_4 
REMARK    2  A    between atoms: C_8  and  C_9 
REMARK    3  A    between atoms: C_9  and  N_10 
REMARK    4  A    between atoms: N_10  and  C_11 
REMARK    5  A    between atoms: C_15  and  N_16 
ROOT
HETATM    1  N   UNL     1       7.144  -3.622  -0.114  1.00  0.00    -0.386 N 
HETATM    2  H   UNL     1       6.648  -4.360  -0.612  1.00  0.00     0.160 HD
ENDROOT
BRANCH   1   3
HETATM    3  C   UNL     1       6.271  -2.805   0.717  1.00  0.00     0.158 C 
BRANCH   3   4
HETATM    4  C   UNL     1       4.967  -2.555  -0.013  1.00  0.00    -0.038 A 
HETATM    5  C   UNL     1       3.743  -2.984   0.528  1.00  0.00     0.009 A 
HETATM    6  C   UNL     1       2.540  -2.762  -0.153  1.00  0.00     0.003 A 
HETATM    7  C   UNL     1       2.540  -2.108  -1.386  1.00  0.00     0.036 A 
HETATM    8  C   UNL     1       3.753  -1.666  -1.928  1.00  0.00     0.103 A 
HETATM    9  C   UNL     1       4.961  -1.882  -1.247  1.00  0.00     0.045 A 
BRANCH   8  10
HETATM   10  N   UNL     1       3.759  -0.972  -3.222  1.00  0.00    -0.116 N 
HETATM   11  O   UNL     1       2.676  -0.831  -3.805  1.00  0.00    -0.532 OA
HETATM   12  O   UNL     1       4.847  -0.564  -3.654  1.00  0.00    -0.532 OA
ENDBRANCH   8  10
ENDBRANCH   3   4
ENDBRANCH   1   3
BRANCH   1  13
HETATM   13  C   UNL     1       8.404  -4.033   0.317  1.00  0.00     0.030 A 
HETATM   14  C   UNL     1       8.996  -3.627   1.520  1.00  0.00     0.029 A 
HETATM   15  C   UNL     1      10.288  -4.040   1.876  1.00  0.00     0.005 A 
HETATM   16  C   UNL     1      11.031  -4.843   1.015  1.00  0.00     0.036 A 
HETATM   17  C   UNL     1      10.471  -5.221  -0.208  1.00  0.00     0.105 A 
HETATM   18  C   UNL     1       9.175  -4.813  -0.558  1.00  0.00     0.065 A 
BRANCH  17  19
HETATM   19  N   UNL     1      11.244  -6.056  -1.135  1.00  0.00    -0.116 N 
HETATM   20  O   UNL     1      12.377  -6.414  -0.781  1.00  0.00    -0.532 OA
HETATM   21  O   UNL     1      10.717  -6.363  -2.213  1.00  0.00    -0.532 OA
ENDBRANCH  17  19
ENDBRANCH   1  13
TORSDOF 5
