REMARK  4 active torsions:
REMARK  status: ('A' for Active; 'I' for Inactive)
REMARK    1  A    between atoms: N_2  and  C_4 
REMARK    2  A    between atoms: C_7  and  C_8 
REMARK    3  A    between atoms: C_8  and  N_9 
REMARK    4  A    between atoms: N_9  and  C_10 
ROOT
HETATM    1  C   UNL     1       5.179  -0.744  -4.963  1.00  0.00     0.131 C 
ENDROOT
BRANCH   1   2
HETATM    2  C   UNL     1       4.458  -0.439  -3.667  1.00  0.00    -0.045 A 
HETATM    3  C   UNL     1       3.249  -1.083  -3.352  1.00  0.00     0.011 A 
HETATM    4  C   UNL     1       2.623  -0.859  -2.120  1.00  0.00     0.037 A 
HETATM    5  C   UNL     1       3.205   0.021  -1.201  1.00  0.00     0.102 A 
HETATM    6  C   UNL     1       4.389   0.697  -1.513  1.00  0.00     0.037 A 
HETATM    7  C   UNL     1       5.005   0.469  -2.747  1.00  0.00     0.011 A 
BRANCH   5   8
HETATM    8  N   UNL     1       2.572   0.227   0.109  1.00  0.00    -0.116 N 
HETATM    9  O   UNL     1       1.526  -0.392   0.349  1.00  0.00    -0.532 OA
HETATM   10  O   UNL     1       3.125   1.004   0.902  1.00  0.00    -0.532 OA
ENDBRANCH   5   8
ENDBRANCH   1   2
BRANCH   1  11
HETATM   11  N   UNL     1       4.743   0.151  -6.024  1.00  0.00    -0.289 NA
HETATM   12  H   UNL     1       3.738   0.303  -6.030  1.00  0.00     0.128 HD
BRANCH  11  13
HETATM   13  C   UNL     1       5.246  -0.023  -7.321  1.00  0.00     0.010 A 
HETATM   14  C   UNL     1       6.331  -0.854  -7.635  1.00  0.00     0.023 A 
HETATM   15  C   UNL     1       6.809  -0.968  -8.945  1.00  0.00     0.003 A 
HETATM   16  C   UNL     1       6.234  -0.218  -9.966  1.00  0.00     0.024 A 
HETATM   17  C   UNL     1       5.196   0.656  -9.662  1.00  0.00     0.035 A 
HETATM   18 CL   UNL     1       4.498   1.612 -10.914  1.00  0.00    -0.084 Cl
HETATM   19  C   UNL     1       4.714   0.764  -8.355  1.00  0.00     0.047 A 
ENDBRANCH  11  13
ENDBRANCH   1  11
TORSDOF 4
