REMARK  4 active torsions:
REMARK  status: ('A' for Active; 'I' for Inactive)
REMARK    1  A    between atoms: N_2  and  C_4 
REMARK    2  A    between atoms: C_7  and  N_8 
REMARK    3  A    between atoms: N_8  and  C_9 
REMARK    4  A    between atoms: C_9  and  C_10 
ROOT
HETATM    1  N   UNL     1       5.019   4.477  -2.138  1.00  0.00    -0.289 NA
HETATM    2  H   UNL     1       5.435   4.208  -3.029  1.00  0.00     0.128 HD
ENDROOT
BRANCH   1   3
HETATM    3  C   UNL     1       4.277   3.419  -1.603  1.00  0.00     0.008 A 
HETATM    4  C   UNL     1       2.886   3.307  -1.719  1.00  0.00     0.026 A 
HETATM    5  C   UNL     1       2.203   2.223  -1.156  1.00  0.00     0.038 A 
HETATM    6  C   UNL     1       2.921   1.225  -0.487  1.00  0.00     0.102 A 
HETATM    7  C   UNL     1       4.315   1.289  -0.413  1.00  0.00     0.038 A 
HETATM    8  C   UNL     1       4.982   2.374  -0.989  1.00  0.00     0.026 A 
BRANCH   6   9
HETATM    9  N   UNL     1       2.207   0.108   0.142  1.00  0.00    -0.116 N 
HETATM   10  O   UNL     1       0.970   0.093   0.055  1.00  0.00    -0.532 OA
HETATM   11  O   UNL     1       2.881  -0.752   0.726  1.00  0.00    -0.532 OA
ENDBRANCH   6   9
ENDBRANCH   1   3
BRANCH   1  12
HETATM   12  C   UNL     1       4.373   5.783  -2.231  1.00  0.00     0.131 C 
BRANCH  12  13
HETATM   13  C   UNL     1       5.393   6.904  -2.232  1.00  0.00    -0.045 A 
HETATM   14  C   UNL     1       5.067   8.127  -2.840  1.00  0.00     0.010 A 
HETATM   15  C   UNL     1       5.949   9.210  -2.784  1.00  0.00     0.024 A 
HETATM   16  C   UNL     1       7.163   9.081  -2.114  1.00  0.00     0.034 A 
HETATM   17 CL   UNL     1       8.244  10.417  -2.039  1.00  0.00    -0.084 Cl
HETATM   18  C   UNL     1       7.500   7.880  -1.494  1.00  0.00     0.024 A 
HETATM   19  C   UNL     1       6.614   6.800  -1.546  1.00  0.00     0.010 A 
ENDBRANCH  12  13
ENDBRANCH   1  12
TORSDOF 4
