REMARK  4 active torsions:
REMARK  status: ('A' for Active; 'I' for Inactive)
REMARK    1  A    between atoms: N_2  and  C_4 
REMARK    2  A    between atoms: C_8  and  N_9 
REMARK    3  A    between atoms: N_9  and  C_10 
REMARK    4  A    between atoms: C_10  and  C_11 
ROOT
HETATM    1  N   UNL     1       6.110   2.781   0.902  1.00  0.00    -0.289 NA
HETATM    2  H   UNL     1       6.563   2.230   0.175  1.00  0.00     0.128 HD
ENDROOT
BRANCH   1   3
HETATM    3  C   UNL     1       4.891   2.223   1.317  1.00  0.00     0.010 A 
HETATM    4  C   UNL     1       4.260   2.581   2.519  1.00  0.00     0.023 A 
HETATM    5  C   UNL     1       3.019   2.050   2.889  1.00  0.00     0.004 A 
HETATM    6  C   UNL     1       2.363   1.162   2.046  1.00  0.00     0.036 A 
HETATM    7  C   UNL     1       2.955   0.828   0.823  1.00  0.00     0.104 A 
HETATM    8  C   UNL     1       4.195   1.372   0.446  1.00  0.00     0.059 A 
BRANCH   7   9
HETATM    9  N   UNL     1       2.271  -0.112  -0.072  1.00  0.00    -0.116 N 
HETATM   10  O   UNL     1       1.188  -0.582   0.301  1.00  0.00    -0.532 OA
HETATM   11  O   UNL     1       2.822  -0.390  -1.149  1.00  0.00    -0.532 OA
ENDBRANCH   7   9
ENDBRANCH   1   3
BRANCH   1  12
HETATM   12  C   UNL     1       7.054   3.175   1.945  1.00  0.00     0.131 C 
BRANCH  12  13
HETATM   13  C   UNL     1       8.325   3.732   1.348  1.00  0.00    -0.045 A 
HETATM   14  C   UNL     1       8.289   4.871   0.527  1.00  0.00     0.010 A 
HETATM   15  C   UNL     1       9.472   5.442   0.054  1.00  0.00     0.024 A 
HETATM   16  C   UNL     1      10.699   4.878   0.397  1.00  0.00     0.034 A 
HETATM   17 CL   UNL     1      12.158   5.595  -0.165  1.00  0.00    -0.084 Cl
HETATM   18  C   UNL     1      10.752   3.742   1.202  1.00  0.00     0.024 A 
HETATM   19  C   UNL     1       9.569   3.171   1.676  1.00  0.00     0.010 A 
ENDBRANCH  12  13
ENDBRANCH   1  12
TORSDOF 4
