REMARK  6 active torsions:
REMARK  status: ('A' for Active; 'I' for Inactive)
REMARK    1  A    between atoms: N_2  and  C_4 
REMARK    2  A    between atoms: C_9  and  N_10 
REMARK    3  A    between atoms: N_10  and  C_11 
REMARK    4  A    between atoms: C_11  and  C_12 
REMARK    5  A    between atoms: C_15  and  O_16 
REMARK    6  A    between atoms: C_17  and  O_18 
ROOT
HETATM    1  N   UNL     1       4.545   1.030   1.175  1.00  0.00    -0.287 NA
HETATM    2  H   UNL     1       5.005   1.132   2.088  1.00  0.00     0.128 HD
ENDROOT
BRANCH   1   3
HETATM    3  C   UNL     1       4.098  -0.294   0.954  1.00  0.00     0.042 A 
HETATM    4  C   UNL     1       4.581  -1.425   1.667  1.00  0.00     0.124 A 
HETATM    5  C   UNL     1       4.191  -2.737   1.310  1.00  0.00     0.038 A 
HETATM    6  C   UNL     1       3.316  -2.951   0.250  1.00  0.00     0.003 A 
HETATM    7  C   UNL     1       2.833  -1.866  -0.463  1.00  0.00     0.002 A 
HETATM    8  C   UNL     1       3.235  -0.568  -0.128  1.00  0.00     0.026 A 
BRANCH   4   9
HETATM    9  N   UNL     1       5.456  -1.292   2.844  1.00  0.00    -0.114 N 
HETATM   10  O   UNL     1       5.816  -2.330   3.419  1.00  0.00    -0.532 OA
HETATM   11  O   UNL     1       5.768  -0.151   3.225  1.00  0.00    -0.532 OA
ENDBRANCH   4   9
ENDBRANCH   1   3
BRANCH   1  12
HETATM   12  C   UNL     1       3.594   2.117   0.933  1.00  0.00     0.131 C 
BRANCH  12  13
HETATM   13  C   UNL     1       4.202   3.477   1.184  1.00  0.00    -0.042 A 
HETATM   14  C   UNL     1       5.334   3.904   0.464  1.00  0.00     0.011 A 
HETATM   15  C   UNL     1       5.825   5.208   0.601  1.00  0.00     0.040 A 
HETATM   16  C   UNL     1       5.179   6.088   1.459  1.00  0.00     0.098 A 
HETATM   17  C   UNL     1       4.056   5.678   2.170  1.00  0.00     0.099 A 
HETATM   18  C   UNL     1       3.567   4.384   2.047  1.00  0.00     0.047 A 
BRANCH  16  19
HETATM   19  O   UNL     1       5.604   7.377   1.630  1.00  0.00    -0.358 OA
HETATM   20  H   UNL     1       6.437   7.486   1.140  1.00  0.00     0.217 HD
ENDBRANCH  16  19
BRANCH  17  21
HETATM   21  O   UNL     1       3.406   6.559   2.987  1.00  0.00    -0.358 OA
HETATM   22  H   UNL     1       3.908   7.394   2.892  1.00  0.00     0.217 HD
ENDBRANCH  17  21
ENDBRANCH  12  13
ENDBRANCH   1  12
TORSDOF 6
