REMARK  6 active torsions:
REMARK  status: ('A' for Active; 'I' for Inactive)
REMARK    1  A    between atoms: N_2  and  C_4 
REMARK    2  A    between atoms: C_7  and  N_8 
REMARK    3  A    between atoms: N_8  and  C_9 
REMARK    4  A    between atoms: C_9  and  C_10 
REMARK    5  A    between atoms: C_13  and  O_14 
REMARK    6  A    between atoms: C_15  and  O_16 
ROOT
HETATM    1  N   UNL     1       5.386  -4.667  -1.321  1.00  0.00    -0.289 NA
HETATM    2  H   UNL     1       5.243  -4.870  -0.335  1.00  0.00     0.128 HD
ENDROOT
BRANCH   1   3
HETATM    3  C   UNL     1       5.127  -3.333  -1.619  1.00  0.00     0.008 A 
HETATM    4  C   UNL     1       3.966  -2.885  -2.260  1.00  0.00     0.026 A 
HETATM    5  C   UNL     1       3.786  -1.528  -2.551  1.00  0.00     0.038 A 
HETATM    6  C   UNL     1       4.772  -0.605  -2.182  1.00  0.00     0.102 A 
HETATM    7  C   UNL     1       5.910  -1.026  -1.489  1.00  0.00     0.038 A 
HETATM    8  C   UNL     1       6.067  -2.383  -1.197  1.00  0.00     0.026 A 
BRANCH   6   9
HETATM    9  N   UNL     1       4.618   0.811  -2.535  1.00  0.00    -0.116 N 
HETATM   10  O   UNL     1       3.593   1.144  -3.148  1.00  0.00    -0.532 OA
HETATM   11  O   UNL     1       5.524   1.590  -2.206  1.00  0.00    -0.532 OA
ENDBRANCH   6   9
ENDBRANCH   1   3
BRANCH   1  12
HETATM   12  C   UNL     1       4.834  -5.714  -2.175  1.00  0.00     0.131 C 
BRANCH  12  13
HETATM   13  C   UNL     1       5.738  -6.922  -2.097  1.00  0.00    -0.042 A 
HETATM   14  C   UNL     1       7.099  -6.808  -2.452  1.00  0.00     0.011 A 
HETATM   15  C   UNL     1       7.956  -7.910  -2.394  1.00  0.00     0.040 A 
HETATM   16  C   UNL     1       7.446  -9.134  -1.982  1.00  0.00     0.098 A 
HETATM   17  C   UNL     1       6.103  -9.258  -1.635  1.00  0.00     0.099 A 
HETATM   18  C   UNL     1       5.243  -8.168  -1.693  1.00  0.00     0.047 A 
BRANCH  16  19
HETATM   19  O   UNL     1       8.231 -10.252  -1.902  1.00  0.00    -0.358 OA
HETATM   20  H   UNL     1       9.126 -10.011  -2.195  1.00  0.00     0.217 HD
ENDBRANCH  16  19
BRANCH  17  21
HETATM   21  O   UNL     1       5.616 -10.466  -1.224  1.00  0.00    -0.358 OA
HETATM   22  H   UNL     1       6.393 -11.060  -1.244  1.00  0.00     0.217 HD
ENDBRANCH  17  21
ENDBRANCH  12  13
ENDBRANCH   1  12
TORSDOF 6
