REMARK  3 active torsions:
REMARK  status: ('A' for Active; 'I' for Inactive)
REMARK    1  A    between atoms: C_5  and  N_6 
REMARK    2  A    between atoms: N_6  and  C_7 
REMARK    3  A    between atoms: C_7  and  C_8 
ROOT
HETATM    1  C   UNL     1       4.635   1.224   0.043  1.00  0.00     0.158 C 
ENDROOT
BRANCH   1   2
HETATM    2  N   UNL     1       3.776   0.059  -0.074  1.00  0.00    -0.386 N 
HETATM    3  H   UNL     1       3.851  -0.437  -0.956  1.00  0.00     0.160 HD
BRANCH   2   4
HETATM    4  C   UNL     1       3.293  -0.681   0.992  1.00  0.00     0.028 A 
HETATM    5  C   UNL     1       3.544  -0.374   2.334  1.00  0.00     0.031 A 
HETATM    6  C   UNL     1       2.950  -1.104   3.372  1.00  0.00     0.026 A 
HETATM    7  C   UNL     1       2.074  -2.142   3.076  1.00  0.00     0.034 A 
HETATM    8 CL   UNL     1       1.327  -3.025   4.349  1.00  0.00    -0.084 Cl
HETATM    9  C   UNL     1       1.794  -2.458   1.753  1.00  0.00     0.026 A 
HETATM   10  C   UNL     1       2.397  -1.729   0.723  1.00  0.00     0.031 A 
ENDBRANCH   2   4
ENDBRANCH   1   2
BRANCH   1  11
HETATM   11  C   UNL     1       6.118   0.921   0.098  1.00  0.00    -0.038 A 
HETATM   12  C   UNL     1       6.659  -0.381  -0.025  1.00  0.00     0.012 A 
HETATM   13  C   UNL     1       8.042  -0.600   0.010  1.00  0.00     0.040 A 
HETATM   14  C   UNL     1       8.864   0.492   0.170  1.00  0.00     0.105 A 
HETATM   15  C   UNL     1       8.357   1.762   0.289  1.00  0.00     0.105 A 
HETATM   16  O   UNL     1      10.222   0.468   0.230  1.00  0.00    -0.323 OA
HETATM   17  C   UNL     1       7.000   2.009   0.254  1.00  0.00     0.048 A 
HETATM   18  O   UNL     1       9.330   2.700   0.439  1.00  0.00    -0.323 OA
HETATM   19  C   UNL     1      10.508   1.867   0.437  1.00  0.00     0.352 A 
ENDBRANCH   1  11
TORSDOF 3
