REMARK  5 active torsions:
REMARK  status: ('A' for Active; 'I' for Inactive)
REMARK    1  A    between atoms: O_2  and  C_3 
REMARK    2  A    between atoms: C_6  and  N_7 
REMARK    3  A    between atoms: N_7  and  C_8 
REMARK    4  A    between atoms: C_8  and  C_9 
REMARK    5  A    between atoms: C_12  and  N_13 
ROOT
HETATM    1  N   UNL     1       5.114   2.730  -4.018  1.00  0.00    -0.386 N 
HETATM    2  H   UNL     1       5.552   2.007  -4.586  1.00  0.00     0.160 HD
ENDROOT
BRANCH   1   3
HETATM    3  C   UNL     1       4.451   2.210  -2.902  1.00  0.00     0.028 A 
HETATM    4  C   UNL     1       3.232   2.713  -2.432  1.00  0.00     0.032 A 
HETATM    5  C   UNL     1       2.638   2.224  -1.264  1.00  0.00     0.039 A 
HETATM    6  C   UNL     1       3.273   1.242  -0.509  1.00  0.00     0.068 A 
HETATM    7  C   UNL     1       4.501   0.744  -0.947  1.00  0.00     0.039 A 
HETATM    8  C   UNL     1       5.083   1.227  -2.132  1.00  0.00     0.032 A 
BRANCH   6   9
HETATM    9  O   UNL     1       2.800   0.712   0.660  1.00  0.00    -0.356 OA
HETATM   10  C   UNL     1       1.573   1.252   1.140  1.00  0.00     0.210 C 
ENDBRANCH   6   9
ENDBRANCH   1   3
BRANCH   1  11
HETATM   11  C   UNL     1       4.490   3.792  -4.790  1.00  0.00     0.158 C 
BRANCH  11  12
HETATM   12  C   UNL     1       5.332   4.174  -5.980  1.00  0.00    -0.040 A 
HETATM   13  C   UNL     1       5.110   3.586  -7.226  1.00  0.00     0.011 A 
HETATM   14  C   UNL     1       5.863   3.976  -8.343  1.00  0.00     0.030 A 
HETATM   15  C   UNL     1       6.863   4.961  -8.277  1.00  0.00     0.029 A 
HETATM   16  C   UNL     1       7.078   5.523  -7.009  1.00  0.00     0.030 A 
HETATM   17  C   UNL     1       6.337   5.136  -5.878  1.00  0.00     0.011 A 
BRANCH  15  18
HETATM   18  N   UNL     1       7.620   5.297  -9.394  1.00  0.00    -0.390 N 
HETATM   19  C   UNL     1       7.027   5.297 -10.731  1.00  0.00     0.149 C 
HETATM   20  C   UNL     1       8.858   6.064  -9.289  1.00  0.00     0.149 C 
ENDBRANCH  15  18
ENDBRANCH  11  12
ENDBRANCH   1  11
TORSDOF 5
