REMARK  4 active torsions:
REMARK  status: ('A' for Active; 'I' for Inactive)
REMARK    1  A    between atoms: N_2  and  C_4 
REMARK    2  A    between atoms: C_8  and  C_9 
REMARK    3  A    between atoms: C_9  and  N_10 
REMARK    4  A    between atoms: N_10  and  C_11 
ROOT
HETATM    1  C   UNL     1       6.208   0.763   2.835  1.00  0.00     0.158 C 
ENDROOT
BRANCH   1   2
HETATM    2  C   UNL     1       4.846   0.129   2.662  1.00  0.00    -0.038 A 
HETATM    3  C   UNL     1       4.595  -0.759   1.605  1.00  0.00     0.009 A 
HETATM    4  C   UNL     1       3.323  -1.309   1.416  1.00  0.00     0.003 A 
HETATM    5  C   UNL     1       2.285  -0.991   2.292  1.00  0.00     0.036 A 
HETATM    6  C   UNL     1       2.535  -0.129   3.368  1.00  0.00     0.103 A 
HETATM    7  C   UNL     1       3.808   0.425   3.562  1.00  0.00     0.045 A 
BRANCH   6   8
HETATM    8  N   UNL     1       1.450   0.208   4.297  1.00  0.00    -0.116 N 
HETATM    9  O   UNL     1       0.326  -0.266   4.070  1.00  0.00    -0.532 OA
HETATM   10  O   UNL     1       1.717   0.955   5.249  1.00  0.00    -0.532 OA
ENDBRANCH   6   8
ENDBRANCH   1   2
BRANCH   1  11
HETATM   11  N   UNL     1       7.057  -0.086   3.651  1.00  0.00    -0.386 N 
HETATM   12  H   UNL     1       6.564  -0.580   4.391  1.00  0.00     0.160 HD
BRANCH  11  13
HETATM   13  C   UNL     1       8.327   0.342   4.048  1.00  0.00     0.029 A 
HETATM   14  C   UNL     1       8.941   1.512   3.580  1.00  0.00     0.029 A 
HETATM   15  C   UNL     1      10.246   1.852   3.957  1.00  0.00     0.004 A 
HETATM   16  C   UNL     1      10.976   1.005   4.785  1.00  0.00     0.024 A 
HETATM   17  C   UNL     1      10.396  -0.178   5.228  1.00  0.00     0.036 A 
HETATM   18 CL   UNL     1      11.306  -1.254   6.217  1.00  0.00    -0.084 Cl
HETATM   19  C   UNL     1       9.089  -0.508   4.862  1.00  0.00     0.052 A 
ENDBRANCH  11  13
ENDBRANCH   1  11
TORSDOF 4
