REMARK  6 active torsions:
REMARK  status: ('A' for Active; 'I' for Inactive)
REMARK    1  A    between atoms: O_1  and  C_2 
REMARK    2  A    between atoms: C_5  and  C_6 
REMARK    3  A    between atoms: C_6  and  C_7 
REMARK    4  A    between atoms: C_7  and  C_8 
REMARK    5  A    between atoms: C_15  and  O_16 
REMARK    6  A    between atoms: C_17  and  O_18 
ROOT
HETATM    1  C   UNL     1       1.010   0.527   0.276  1.00  0.00     0.101 A 
HETATM    2  C   UNL     1       0.042   0.508   1.271  1.00  0.00     0.040 A 
HETATM    3  C   UNL     1      -1.050  -0.363   1.161  1.00  0.00     0.013 A 
HETATM    4  C   UNL     1      -1.209  -1.221   0.052  1.00  0.00    -0.022 A 
HETATM    5  C   UNL     1      -0.210  -1.193  -0.931  1.00  0.00     0.107 A 
HETATM    6  C   UNL     1       0.885  -0.322  -0.817  1.00  0.00     0.133 A 
ENDROOT
BRANCH   4   7
HETATM    7  C   UNL     1      -2.427  -2.123   0.014  1.00  0.00     0.046 C 
BRANCH   7   8
HETATM    8  C   UNL     1      -3.755  -1.343   0.004  1.00  0.00     0.043 C 
BRANCH   8   9
HETATM    9  C   UNL     1      -5.037  -2.152   0.027  1.00  0.00    -0.056 A 
HETATM   10  C   UNL     1      -6.254  -1.448   0.036  1.00  0.00     0.007 A 
HETATM   11  C   UNL     1      -7.479  -2.119   0.065  1.00  0.00     0.002 A 
HETATM   12  C   UNL     1      -7.508  -3.510   0.083  1.00  0.00     0.024 A 
HETATM   13  C   UNL     1      -6.310  -4.221   0.075  1.00  0.00     0.034 A 
HETATM   14 CL   UNL     1      -6.343  -5.942   0.101  1.00  0.00    -0.084 Cl
HETATM   15  C   UNL     1      -5.082  -3.553   0.049  1.00  0.00     0.031 A 
ENDBRANCH   8   9
ENDBRANCH   7   8
ENDBRANCH   4   7
BRANCH   5  16
HETATM   16  O   UNL     1      -0.204  -1.985  -2.051  1.00  0.00    -0.357 OA
HETATM   17  H   UNL     1      -0.863  -2.689  -1.958  1.00  0.00     0.217 HD
ENDBRANCH   5  16
BRANCH   6  18
HETATM   18  O   UNL     1       1.841  -0.330  -1.799  1.00  0.00    -0.356 OA
HETATM   19  H   UNL     1       1.528  -0.997  -2.440  1.00  0.00     0.218 HD
ENDBRANCH   6  18
BRANCH   1  20
HETATM   20  O   UNL     1       2.085   1.364   0.367  1.00  0.00    -0.358 OA
HETATM   21  H   UNL     1       2.021   1.877   1.185  1.00  0.00     0.217 HD
ENDBRANCH   1  20
TORSDOF 6
