REMARK  5 active torsions:
REMARK  status: ('A' for Active; 'I' for Inactive)
REMARK    1  A    between atoms: O_2  and  C_3 
REMARK    2  A    between atoms: C_6  and  C_7 
REMARK    3  A    between atoms: C_7  and  N_8 
REMARK    4  A    between atoms: N_8  and  C_9 
REMARK    5  A    between atoms: C_17  and  O_18 
ROOT
HETATM    1  C   UNL     1       3.061   0.026  -1.086  1.00  0.00     0.101 A 
HETATM    2  C   UNL     1       2.714   0.939  -2.093  1.00  0.00     0.040 A 
HETATM    3  C   UNL     1       3.446   1.012  -3.282  1.00  0.00     0.012 A 
HETATM    4  C   UNL     1       4.547   0.178  -3.492  1.00  0.00    -0.038 A 
HETATM    5  C   UNL     1       4.923  -0.701  -2.467  1.00  0.00     0.048 A 
HETATM    6  C   UNL     1       4.181  -0.799  -1.279  1.00  0.00     0.102 A 
ENDROOT
BRANCH   4   7
HETATM    7  C   UNL     1       5.311   0.219  -4.794  1.00  0.00     0.158 C 
BRANCH   7   8
HETATM    8  N   UNL     1       6.399   1.182  -4.720  1.00  0.00    -0.386 N 
HETATM    9  H   UNL     1       6.170   2.015  -4.185  1.00  0.00     0.160 HD
BRANCH   8  10
HETATM   10  C   UNL     1       7.169   1.461  -5.853  1.00  0.00     0.028 A 
HETATM   11  C   UNL     1       7.142   0.688  -7.022  1.00  0.00     0.031 A 
HETATM   12  C   UNL     1       7.981   0.977  -8.105  1.00  0.00     0.026 A 
HETATM   13  C   UNL     1       8.888   2.025  -8.018  1.00  0.00     0.034 A 
HETATM   14 CL   UNL     1       9.920   2.380  -9.348  1.00  0.00    -0.084 Cl
HETATM   15  C   UNL     1       8.971   2.780  -6.854  1.00  0.00     0.026 A 
HETATM   16  C   UNL     1       8.122   2.488  -5.778  1.00  0.00     0.031 A 
ENDBRANCH   8  10
ENDBRANCH   7   8
ENDBRANCH   4   7
BRANCH   6  17
HETATM   17  O   UNL     1       4.692  -1.718  -0.397  1.00  0.00    -0.353 OA
HETATM   18  C   UNL     1       3.754  -2.405   0.422  1.00  0.00     0.210 C 
ENDBRANCH   6  17
BRANCH   1  19
HETATM   19  O   UNL     1       2.398  -0.043   0.111  1.00  0.00    -0.353 OA
HETATM   20  C   UNL     1       1.043   0.393   0.122  1.00  0.00     0.210 C 
ENDBRANCH   1  19
TORSDOF 5
