REMARK  5 active torsions:
REMARK  status: ('A' for Active; 'I' for Inactive)
REMARK    1  A    between atoms: N_2  and  C_4 
REMARK    2  A    between atoms: C_7  and  C_8 
REMARK    3  A    between atoms: C_8  and  N_9 
REMARK    4  A    between atoms: N_9  and  C_10 
REMARK    5  A    between atoms: C_14  and  N_15 
ROOT
HETATM    1  N   UNL     1       6.366   1.056   5.038  1.00  0.00    -0.386 N 
HETATM    2  H   UNL     1       6.001   0.107   5.013  1.00  0.00     0.160 HD
ENDROOT
BRANCH   1   3
HETATM    3  C   UNL     1       5.415   2.041   4.541  1.00  0.00     0.158 C 
BRANCH   3   4
HETATM    4  C   UNL     1       4.656   1.506   3.352  1.00  0.00    -0.040 A 
HETATM    5  C   UNL     1       3.437   0.843   3.508  1.00  0.00     0.011 A 
HETATM    6  C   UNL     1       2.706   0.410   2.388  1.00  0.00     0.030 A 
HETATM    7  C   UNL     1       3.168   0.596   1.075  1.00  0.00     0.029 A 
HETATM    8  C   UNL     1       4.404   1.253   0.946  1.00  0.00     0.030 A 
HETATM    9  C   UNL     1       5.141   1.692   2.057  1.00  0.00     0.011 A 
BRANCH   7  10
HETATM   10  N   UNL     1       2.441   0.186  -0.047  1.00  0.00    -0.390 N 
HETATM   11  C   UNL     1       1.129  -0.432   0.108  1.00  0.00     0.149 C 
HETATM   12  C   UNL     1       3.184  -0.153  -1.259  1.00  0.00     0.149 C 
ENDBRANCH   7  10
ENDBRANCH   3   4
ENDBRANCH   1   3
BRANCH   1  13
HETATM   13  C   UNL     1       7.109   1.323   6.194  1.00  0.00     0.030 A 
HETATM   14  C   UNL     1       7.211   2.595   6.775  1.00  0.00     0.029 A 
HETATM   15  C   UNL     1       8.003   2.827   7.906  1.00  0.00     0.005 A 
HETATM   16  C   UNL     1       8.743   1.790   8.464  1.00  0.00     0.036 A 
HETATM   17  C   UNL     1       8.696   0.527   7.865  1.00  0.00     0.105 A 
HETATM   18  C   UNL     1       7.898   0.297   6.732  1.00  0.00     0.065 A 
BRANCH  17  19
HETATM   19  N   UNL     1       9.489  -0.571   8.433  1.00  0.00    -0.116 N 
HETATM   20  O   UNL     1      10.137  -0.340   9.463  1.00  0.00    -0.532 OA
HETATM   21  O   UNL     1       9.458  -1.665   7.851  1.00  0.00    -0.532 OA
ENDBRANCH  17  19
ENDBRANCH   1  13
TORSDOF 5
