REMARK  5 active torsions:
REMARK  status: ('A' for Active; 'I' for Inactive)
REMARK    1  A    between atoms: N_2  and  C_4 
REMARK    2  A    between atoms: C_7  and  C_8 
REMARK    3  A    between atoms: C_8  and  N_9 
REMARK    4  A    between atoms: N_9  and  C_10 
REMARK    5  A    between atoms: C_14  and  N_15 
ROOT
HETATM    1  N   UNL     1       4.416   4.999  -3.419  1.00  0.00    -0.386 N 
HETATM    2  H   UNL     1       3.423   5.072  -3.206  1.00  0.00     0.160 HD
ENDROOT
BRANCH   1   3
HETATM    3  C   UNL     1       4.878   3.625  -3.565  1.00  0.00     0.158 C 
BRANCH   3   4
HETATM    4  C   UNL     1       4.253   2.717  -2.529  1.00  0.00    -0.040 A 
HETATM    5  C   UNL     1       3.060   2.032  -2.807  1.00  0.00     0.011 A 
HETATM    6  C   UNL     1       2.541   1.108  -1.896  1.00  0.00     0.037 A 
HETATM    7  C   UNL     1       3.215   0.874  -0.690  1.00  0.00     0.102 A 
HETATM    8  C   UNL     1       4.383   1.580  -0.379  1.00  0.00     0.037 A 
HETATM    9  C   UNL     1       4.892   2.505  -1.296  1.00  0.00     0.011 A 
BRANCH   7  10
HETATM   10  N   UNL     1       2.704  -0.138   0.244  1.00  0.00    -0.116 N 
HETATM   11  O   UNL     1       1.678  -0.754  -0.076  1.00  0.00    -0.532 OA
HETATM   12  O   UNL     1       3.337  -0.326   1.294  1.00  0.00    -0.532 OA
ENDBRANCH   7  10
ENDBRANCH   3   4
ENDBRANCH   1   3
BRANCH   1  13
HETATM   13  C   UNL     1       4.843   5.962  -4.345  1.00  0.00     0.030 A 
HETATM   14  C   UNL     1       5.899   5.753  -5.245  1.00  0.00     0.029 A 
HETATM   15  C   UNL     1       6.343   6.758  -6.111  1.00  0.00     0.005 A 
HETATM   16  C   UNL     1       5.757   8.018  -6.073  1.00  0.00     0.036 A 
HETATM   17  C   UNL     1       4.732   8.260  -5.153  1.00  0.00     0.105 A 
HETATM   18  C   UNL     1       4.285   7.246  -4.287  1.00  0.00     0.065 A 
BRANCH  17  19
HETATM   19  N   UNL     1       4.125   9.594  -5.091  1.00  0.00    -0.116 N 
HETATM   20  O   UNL     1       4.535  10.452  -5.886  1.00  0.00    -0.532 OA
HETATM   21  O   UNL     1       3.238   9.789  -4.248  1.00  0.00    -0.532 OA
ENDBRANCH  17  19
ENDBRANCH   1  13
TORSDOF 5
