REMARK  4 active torsions:
REMARK  status: ('A' for Active; 'I' for Inactive)
REMARK    1  A    between atoms: N_2  and  C_4 
REMARK    2  A    between atoms: C_8  and  N_9 
REMARK    3  A    between atoms: N_9  and  C_10 
REMARK    4  A    between atoms: C_10  and  C_11 
ROOT
HETATM    1  N   UNL     1       6.301   2.567   1.145  1.00  0.00    -0.289 NA
HETATM    2  H   UNL     1       6.655   1.848   0.516  1.00  0.00     0.128 HD
ENDROOT
BRANCH   1   3
HETATM    3  C   UNL     1       4.958   2.356   1.498  1.00  0.00     0.010 A 
HETATM    4  C   UNL     1       4.353   2.979   2.602  1.00  0.00     0.023 A 
HETATM    5  C   UNL     1       3.001   2.794   2.905  1.00  0.00     0.004 A 
HETATM    6  C   UNL     1       2.209   1.995   2.090  1.00  0.00     0.036 A 
HETATM    7  C   UNL     1       2.782   1.403   0.959  1.00  0.00     0.104 A 
HETATM    8  C   UNL     1       4.139   1.600   0.649  1.00  0.00     0.059 A 
BRANCH   7   9
HETATM    9  N   UNL     1       1.954   0.554   0.096  1.00  0.00    -0.116 N 
HETATM   10  O   UNL     1       0.767   0.391   0.412  1.00  0.00    -0.532 OA
HETATM   11  O   UNL     1       2.494   0.037  -0.895  1.00  0.00    -0.532 OA
ENDBRANCH   7   9
ENDBRANCH   1   3
BRANCH   1  12
HETATM   12  C   UNL     1       7.240   2.837   2.230  1.00  0.00     0.131 C 
BRANCH  12  13
HETATM   13  C   UNL     1       8.649   3.017   1.713  1.00  0.00    -0.042 A 
HETATM   14  C   UNL     1       8.949   4.043   0.786  1.00  0.00     0.011 A 
HETATM   15  C   UNL     1      10.270   4.310   0.408  1.00  0.00     0.040 A 
HETATM   16  C   UNL     1      11.265   3.546   0.977  1.00  0.00     0.105 A 
HETATM   17  C   UNL     1      10.982   2.533   1.861  1.00  0.00     0.105 A 
HETATM   18  O   UNL     1      12.601   3.695   0.772  1.00  0.00    -0.323 OA
HETATM   19  C   UNL     1       9.691   2.236   2.240  1.00  0.00     0.048 A 
HETATM   20  O   UNL     1      12.103   1.914   2.320  1.00  0.00    -0.323 OA
HETATM   21  C   UNL     1      13.126   2.715   1.693  1.00  0.00     0.352 A 
ENDBRANCH  12  13
ENDBRANCH   1  12
TORSDOF 4
