REMARK  8 active torsions:
REMARK  status: ('A' for Active; 'I' for Inactive)
REMARK    1  A    between atoms: O_2  and  C_3 
REMARK    2  A    between atoms: C_3  and  C_4 
REMARK    3  A    between atoms: C_4  and  C_5 
REMARK    4  A    between atoms: C_5  and  O_6 
REMARK    5  A    between atoms: O_6  and  C_7 
REMARK    6  A    between atoms: C_11  and  C_12 
REMARK    7  A    between atoms: C_12  and  S_13 
REMARK    8  A    between atoms: S_13  and  C_15 
ROOT
HETATM    1  C   UNL     1       7.023   3.717  -1.785  1.00  0.00     0.078 A 
HETATM    2  C   UNL     1       8.095   3.683  -2.680  1.00  0.00     0.056 A 
HETATM    3  C   UNL     1       8.677   4.868  -3.058  1.00  0.00     0.119 A 
HETATM    4  N   UNL     1       8.261   6.068  -2.623  1.00  0.00    -0.264 NA
HETATM    5  C   UNL     1       7.191   6.117  -1.781  1.00  0.00     0.054 A 
HETATM    6  C   UNL     1       6.493   4.959  -1.383  1.00  0.00    -0.003 A 
HETATM    7  C   UNL     1       5.217   4.980  -0.587  1.00  0.00     0.053 C 
ENDROOT
BRANCH   5   8
HETATM    8  C   UNL     1       6.788   7.517  -1.401  1.00  0.00     0.177 C 
BRANCH   8   9
HETATM    9  S   UNL     1       8.140   8.490  -0.650  1.00  0.00     0.091 S 
HETATM   10  O   UNL     1       8.601   7.908   0.661  1.00  0.00    -0.249 OA
BRANCH   9  11
HETATM   11  C   UNL     1       7.138   9.840  -0.204  1.00  0.00     0.198 C 
HETATM   12  N   UNL     1       6.199  10.360  -0.968  1.00  0.00    -0.221 NA
HETATM   13  C   UNL     1       5.410  11.078  -0.104  1.00  0.00     0.086 A 
HETATM   14  C   UNL     1       4.167  11.684  -0.328  1.00  0.00     0.034 A 
HETATM   15  C   UNL     1       5.958  11.099   1.176  1.00  0.00     0.063 A 
HETATM   16  C   UNL     1       3.494  12.249   0.762  1.00  0.00     0.002 A 
HETATM   17  C   UNL     1       4.069  12.254   2.036  1.00  0.00     0.002 A 
HETATM   18  C   UNL     1       5.333  11.699   2.269  1.00  0.00     0.032 A 
HETATM   19  N   UNL     1       7.121  10.383   1.053  1.00  0.00    -0.331 N 
HETATM   20  H   UNL     1       7.761  10.130   1.792  1.00  0.00     0.168 HD
ENDBRANCH   9  11
ENDBRANCH   8   9
ENDBRANCH   5   8
BRANCH   1  21
HETATM   21  O   UNL     1       6.456   2.566  -1.263  1.00  0.00    -0.350 OA
BRANCH  21  22
HETATM   22  C   UNL     1       7.350   1.441  -1.276  1.00  0.00     0.178 C 
BRANCH  22  23
HETATM   23  C   UNL     1       6.981   0.375  -0.247  1.00  0.00     0.053 C 
BRANCH  23  24
HETATM   24  C   UNL     1       8.063  -0.710  -0.219  1.00  0.00     0.169 C 
BRANCH  24  25
HETATM   25  O   UNL     1       9.310  -0.103   0.126  1.00  0.00    -0.396 OA
HETATM   26  C   UNL     1      10.402  -1.008   0.049  1.00  0.00     0.201 C 
ENDBRANCH  24  25
ENDBRANCH  23  24
ENDBRANCH  22  23
ENDBRANCH  21  22
ENDBRANCH   1  21
TORSDOF 8
