REMARK  5 active torsions:
REMARK  status: ('A' for Active; 'I' for Inactive)
REMARK    1  A    between atoms: C_2  and  C_3 
REMARK       I    between atoms: C_2  and  N_13 
REMARK    2  A    between atoms: C_3  and  C_4 
REMARK    3  A    between atoms: C_4  and  O_5 
REMARK    4  A    between atoms: O_5  and  C_6 
REMARK    5  A    between atoms: N_13  and  O_14 
ROOT
HETATM    1  C   UNL     1       2.080   2.370   0.512  1.00  0.00     0.185 C 
ENDROOT
BRANCH   1   2
HETATM    2  C   UNL     1       3.053   1.221   0.291  1.00  0.00     0.131 C 
BRANCH   2   3
HETATM    3  C   UNL     1       2.312  -0.082   0.095  1.00  0.00     0.242 C 
HETATM    4  O   UNL     1       1.087  -0.197   0.109  1.00  0.00    -0.271 OA
HETATM    5  N   UNL     1       3.144  -1.157  -0.104  1.00  0.00    -0.237 N 
HETATM    6  H   UNL     1       4.156  -1.119  -0.140  1.00  0.00     0.197 HD
BRANCH   5   7
HETATM    7  O   UNL     1       2.535  -2.414  -0.299  1.00  0.00    -0.287 OA
HETATM    8  H   UNL     1       1.578  -2.201  -0.233  1.00  0.00     0.244 HD
ENDBRANCH   5   7
ENDBRANCH   2   3
ENDBRANCH   1   2
BRANCH   1   9
HETATM    9  O   UNL     1       2.817   3.587   0.693  1.00  0.00    -0.351 OA
BRANCH   9  10
HETATM   10  C   UNL     1       2.068   4.707   0.953  1.00  0.00     0.068 A 
HETATM   11  C   UNL     1       0.672   4.756   0.991  1.00  0.00     0.038 A 
HETATM   12  C   UNL     1       0.012   5.954   1.281  1.00  0.00     0.022 A 
HETATM   13  C   UNL     1       0.748   7.109   1.532  1.00  0.00     0.011 A 
HETATM   14 BR   UNL     1      -0.151   8.721   1.939  1.00  0.00    -0.051 Br
HETATM   15  C   UNL     1       2.140   7.077   1.488  1.00  0.00     0.022 A 
HETATM   16  C   UNL     1       2.797   5.876   1.196  1.00  0.00     0.038 A 
ENDBRANCH   9  10
ENDBRANCH   1   9
TORSDOF 5
