REMARK  5 active torsions:
REMARK  status: ('A' for Active; 'I' for Inactive)
REMARK    1  A    between atoms: C_7  and  O_8 
REMARK    2  A    between atoms: O_8  and  C_9 
REMARK    3  A    between atoms: C_9  and  C_10 
REMARK    4  A    between atoms: C_10  and  C_11 
REMARK       I    between atoms: C_11  and  N_13 
REMARK    5  A    between atoms: N_13  and  O_14 
ROOT
HETATM    1  O   UNL     1       0.976  -2.457  -0.007  1.00  0.00    -0.350 OA
ENDROOT
BRANCH   1   2
HETATM    2  C   UNL     1       0.422  -1.195  -0.004  1.00  0.00     0.074 A 
HETATM    3  C   UNL     1       1.049   0.070  -0.005  1.00  0.00    -0.029 A 
HETATM    4  C   UNL     1       2.531   0.338  -0.017  1.00  0.00     0.051 C 
HETATM    5  C   UNL     1       0.235   1.226  -0.001  1.00  0.00     0.009 A 
HETATM    6  C   UNL     1      -1.155   1.148   0.003  1.00  0.00     0.001 A 
HETATM    7  C   UNL     1      -1.768  -0.095   0.003  1.00  0.00     0.003 A 
HETATM    8  C   UNL     1      -0.984  -1.251   0.000  1.00  0.00     0.037 A 
ENDBRANCH   1   2
BRANCH   1   9
HETATM    9  C   UNL     1       2.390  -2.560  -0.009  1.00  0.00     0.185 C 
BRANCH   9  10
HETATM   10  C   UNL     1       2.869  -4.005  -0.013  1.00  0.00     0.131 C 
BRANCH  10  11
HETATM   11  C   UNL     1       4.383  -3.990  -0.021  1.00  0.00     0.242 C 
HETATM   12  O   UNL     1       5.063  -2.965  -0.021  1.00  0.00    -0.271 OA
HETATM   13  N   UNL     1       4.971  -5.225  -0.025  1.00  0.00    -0.237 N 
HETATM   14  H   UNL     1       4.494  -6.118  -0.020  1.00  0.00     0.197 HD
BRANCH  13  15
HETATM   15  O   UNL     1       6.385  -5.235  -0.029  1.00  0.00    -0.287 OA
HETATM   16  H   UNL     1       6.601  -4.273  -0.028  1.00  0.00     0.244 HD
ENDBRANCH  13  15
ENDBRANCH  10  11
ENDBRANCH   9  10
ENDBRANCH   1   9
TORSDOF 5
