REMARK  5 active torsions:
REMARK  status: ('A' for Active; 'I' for Inactive)
REMARK    1  A    between atoms: C_2  and  C_3 
REMARK       I    between atoms: C_2  and  N_14 
REMARK    2  A    between atoms: C_3  and  C_4 
REMARK    3  A    between atoms: C_4  and  O_5 
REMARK    4  A    between atoms: O_5  and  C_6 
REMARK    5  A    between atoms: N_14  and  O_15 
ROOT
HETATM    1  O   UNL     1       2.689  -1.135   3.417  1.00  0.00    -0.351 OA
ENDROOT
BRANCH   1   2
HETATM    2  C   UNL     1       1.947  -0.787   2.243  1.00  0.00     0.185 C 
BRANCH   2   3
HETATM    3  C   UNL     1       2.924  -0.372   1.154  1.00  0.00     0.131 C 
BRANCH   3   4
HETATM    4  C   UNL     1       2.187   0.007  -0.108  1.00  0.00     0.242 C 
HETATM    5  O   UNL     1       0.965   0.015  -0.221  1.00  0.00    -0.271 OA
HETATM    6  N   UNL     1       3.018   0.348  -1.145  1.00  0.00    -0.237 N 
HETATM    7  H   UNL     1       4.020   0.485  -1.071  1.00  0.00     0.197 HD
BRANCH   6   8
HETATM    8  O   UNL     1       2.397   0.767  -2.341  1.00  0.00    -0.287 OA
HETATM    9  H   UNL     1       1.442   0.685  -2.126  1.00  0.00     0.244 HD
ENDBRANCH   6   8
ENDBRANCH   3   4
ENDBRANCH   2   3
ENDBRANCH   1   2
BRANCH   1  10
HETATM   10  C   UNL     1       1.959  -1.585   4.486  1.00  0.00     0.070 A 
HETATM   11  C   UNL     1       0.567  -1.674   4.540  1.00  0.00     0.038 A 
HETATM   12  C   UNL     1      -0.065  -2.161   5.688  1.00  0.00     0.028 A 
HETATM   13  C   UNL     1       0.689  -2.559   6.793  1.00  0.00     0.056 A 
HETATM   14 CL   UNL     1      -0.161  -3.158   8.172  1.00  0.00    -0.083 Cl
HETATM   15  C   UNL     1       2.084  -2.465   6.748  1.00  0.00     0.058 A 
HETATM   16 CL   UNL     1       3.084  -2.935   8.076  1.00  0.00    -0.082 Cl
HETATM   17  C   UNL     1       2.713  -1.978   5.596  1.00  0.00     0.062 A 
ENDBRANCH   1  10
TORSDOF 5
