REMARK  5 active torsions:
REMARK  status: ('A' for Active; 'I' for Inactive)
REMARK    1  A    between atoms: C_5  and  O_6 
REMARK    2  A    between atoms: O_6  and  C_7 
REMARK    3  A    between atoms: C_7  and  C_8 
REMARK    4  A    between atoms: C_8  and  C_9 
REMARK       I    between atoms: C_9  and  N_11 
REMARK    5  A    between atoms: N_11  and  O_12 
ROOT
HETATM    1  O   UNL     1      -3.227  -0.005  -0.022  1.00  0.00    -0.351 OA
ENDROOT
BRANCH   1   2
HETATM    2  C   UNL     1      -1.856   0.075  -0.027  1.00  0.00     0.068 A 
HETATM    3  C   UNL     1      -1.120   1.261  -0.012  1.00  0.00     0.037 A 
HETATM    4  C   UNL     1       0.279   1.228  -0.003  1.00  0.00     0.009 A 
HETATM    5  C   UNL     1       0.964   0.009  -0.004  1.00  0.00    -0.062 A 
HETATM    6  C   UNL     1       2.464  -0.028  -0.011  1.00  0.00     0.048 C 
HETATM    7  C   UNL     1       0.224  -1.179  -0.002  1.00  0.00     0.009 A 
HETATM    8  C   UNL     1      -1.176  -1.144  -0.004  1.00  0.00     0.037 A 
ENDBRANCH   1   2
BRANCH   1   9
HETATM    9  C   UNL     1      -3.899   1.081  -0.669  1.00  0.00     0.185 C 
BRANCH   9  10
HETATM   10  C   UNL     1      -5.405   0.853  -0.614  1.00  0.00     0.131 C 
BRANCH  10  11
HETATM   11  C   UNL     1      -6.130   1.990  -1.295  1.00  0.00     0.242 C 
HETATM   12  O   UNL     1      -5.572   2.951  -1.818  1.00  0.00    -0.271 OA
HETATM   13  N   UNL     1      -7.495   1.870  -1.288  1.00  0.00    -0.237 N 
HETATM   14  H   UNL     1      -8.027   1.114  -0.870  1.00  0.00     0.197 HD
BRANCH  13  15
HETATM   15  O   UNL     1      -8.224   2.908  -1.912  1.00  0.00    -0.287 OA
HETATM   16  H   UNL     1      -7.506   3.506  -2.226  1.00  0.00     0.244 HD
ENDBRANCH  13  15
ENDBRANCH  10  11
ENDBRANCH   9  10
ENDBRANCH   1   9
TORSDOF 5
