REMARK  6 active torsions:
REMARK  status: ('A' for Active; 'I' for Inactive)
REMARK    1  A    between atoms: O_2  and  C_3 
REMARK    2  A    between atoms: C_6  and  C_7 
REMARK    3  A    between atoms: C_7  and  C_8 
REMARK    4  A    between atoms: C_8  and  C_9 
REMARK    5  A    between atoms: C_14  and  O_15 
REMARK    6  A    between atoms: C_17  and  O_18 
ROOT
HETATM    1  C   UNL     1       3.068  -1.088  -0.367  1.00  0.00     0.101 A 
HETATM    2  C   UNL     1       2.743  -1.782  -1.538  1.00  0.00     0.040 A 
HETATM    3  C   UNL     1       3.479  -2.893  -1.946  1.00  0.00     0.010 A 
HETATM    4  C   UNL     1       4.591  -3.323  -1.220  1.00  0.00    -0.055 A 
HETATM    5  C   UNL     1       4.921  -2.628  -0.049  1.00  0.00     0.046 A 
HETATM    6  C   UNL     1       4.168  -1.521   0.389  1.00  0.00     0.102 A 
ENDROOT
BRANCH   4   7
HETATM    7  C   UNL     1       5.393  -4.543  -1.632  1.00  0.00     0.043 C 
BRANCH   7   8
HETATM    8  C   UNL     1       5.470  -4.777  -3.149  1.00  0.00     0.046 C 
BRANCH   8   9
HETATM    9  C   UNL     1       6.290  -5.990  -3.510  1.00  0.00    -0.025 A 
HETATM   10  C   UNL     1       7.668  -5.857  -3.733  1.00  0.00     0.010 A 
HETATM   11  C   UNL     1       8.441  -6.968  -4.070  1.00  0.00     0.001 A 
HETATM   12  C   UNL     1       7.849  -8.225  -4.181  1.00  0.00     0.003 A 
HETATM   13  C   UNL     1       6.480  -8.373  -3.962  1.00  0.00     0.037 A 
HETATM   14  C   UNL     1       5.710  -7.258  -3.632  1.00  0.00     0.071 A 
BRANCH  14  15
HETATM   15  O   UNL     1       4.364  -7.392  -3.433  1.00  0.00    -0.360 OA
HETATM   16  H   UNL     1       4.101  -8.288  -3.697  1.00  0.00     0.217 HD
ENDBRANCH  14  15
ENDBRANCH   8   9
ENDBRANCH   7   8
ENDBRANCH   4   7
BRANCH   6  17
HETATM   17  O   UNL     1       4.652  -0.960   1.543  1.00  0.00    -0.353 OA
HETATM   18  C   UNL     1       3.697  -0.350   2.405  1.00  0.00     0.210 C 
ENDBRANCH   6  17
BRANCH   1  19
HETATM   19  O   UNL     1       2.386   0.033   0.029  1.00  0.00    -0.353 OA
HETATM   20  C   UNL     1       1.046   0.155  -0.436  1.00  0.00     0.210 C 
ENDBRANCH   1  19
TORSDOF 6
