REMARK  5 active torsions:
REMARK  status: ('A' for Active; 'I' for Inactive)
REMARK    1  A    between atoms: C_2  and  C_3 
REMARK       I    between atoms: C_2  and  N_14 
REMARK    2  A    between atoms: C_3  and  O_4 
REMARK    3  A    between atoms: O_4  and  C_5 
REMARK    4  A    between atoms: C_10  and  N_11 
REMARK    5  A    between atoms: N_14  and  O_15 
ROOT
HETATM    1  C   UNL     1       2.502  -0.107  -3.558  1.00  0.00     0.102 A 
HETATM    2  C   UNL     1       3.503  -1.005  -3.954  1.00  0.00     0.039 A 
HETATM    3  C   UNL     1       3.911  -1.086  -5.290  1.00  0.00     0.003 A 
HETATM    4  C   UNL     1       3.326  -0.274  -6.255  1.00  0.00     0.003 A 
HETATM    5  C   UNL     1       2.340   0.638  -5.884  1.00  0.00     0.039 A 
HETATM    6  C   UNL     1       1.929   0.728  -4.538  1.00  0.00     0.136 A 
ENDROOT
BRANCH   1   7
HETATM    7  O   UNL     1       2.006  -0.071  -2.283  1.00  0.00    -0.339 OA
BRANCH   7   8
HETATM    8  C   UNL     1       2.845  -0.519  -1.223  1.00  0.00     0.280 C 
BRANCH   8   9
HETATM    9  C   UNL     1       2.149  -0.365   0.126  1.00  0.00     0.265 C 
HETATM   10  O   UNL     1       2.451  -1.037   1.111  1.00  0.00    -0.269 OA
HETATM   11  N   UNL     1       1.199   0.625   0.181  1.00  0.00    -0.236 N 
HETATM   12  H   UNL     1       0.784   1.041  -0.653  1.00  0.00     0.197 HD
BRANCH  11  13
HETATM   13  O   UNL     1       0.493   0.746   1.400  1.00  0.00    -0.287 OA
HETATM   14  H   UNL     1       0.956   0.100   1.978  1.00  0.00     0.244 HD
ENDBRANCH  11  13
ENDBRANCH   8   9
ENDBRANCH   7   8
ENDBRANCH   1   7
BRANCH   6  15
HETATM   15  N   UNL     1       0.909   1.739  -4.199  1.00  0.00    -0.113 N 
HETATM   16  O   UNL     1       0.688   1.994  -3.006  1.00  0.00    -0.532 OA
HETATM   17  O   UNL     1       0.339   2.306  -5.141  1.00  0.00    -0.532 OA
ENDBRANCH   6  15
TORSDOF 5
