REMARK  5 active torsions:
REMARK  status: ('A' for Active; 'I' for Inactive)
REMARK    1  A    between atoms: C_2  and  C_3 
REMARK       I    between atoms: C_2  and  N_13 
REMARK    2  A    between atoms: C_3  and  C_4 
REMARK    3  A    between atoms: C_4  and  O_5 
REMARK    4  A    between atoms: O_5  and  C_6 
REMARK    5  A    between atoms: N_13  and  O_14 
ROOT
HETATM    1  C   UNL     1       2.068  -2.460   0.318  1.00  0.00     0.185 C 
ENDROOT
BRANCH   1   2
HETATM    2  C   UNL     1       3.052  -1.303   0.215  1.00  0.00     0.131 C 
BRANCH   2   3
HETATM    3  C   UNL     1       2.318   0.008   0.060  1.00  0.00     0.242 C 
HETATM    4  O   UNL     1       1.094   0.117   0.020  1.00  0.00    -0.271 OA
HETATM    5  N   UNL     1       3.146   1.096  -0.035  1.00  0.00    -0.237 N 
HETATM    6  H   UNL     1       4.160   1.071  -0.018  1.00  0.00     0.197 HD
BRANCH   5   7
HETATM    7  O   UNL     1       2.530   2.355  -0.188  1.00  0.00    -0.287 OA
HETATM    8  H   UNL     1       1.575   2.127  -0.192  1.00  0.00     0.244 HD
ENDBRANCH   5   7
ENDBRANCH   2   3
ENDBRANCH   1   2
BRANCH   1   9
HETATM    9  O   UNL     1       2.792  -3.688   0.457  1.00  0.00    -0.351 OA
BRANCH   9  10
HETATM   10  C   UNL     1       2.030  -4.827   0.530  1.00  0.00     0.069 A 
HETATM   11  C   UNL     1       0.631  -4.870   0.522  1.00  0.00     0.040 A 
HETATM   12  C   UNL     1      -0.038  -6.095   0.596  1.00  0.00     0.045 A 
HETATM   13  C   UNL     1       0.691  -7.273   0.680  1.00  0.00     0.116 A 
HETATM   14  F   UNL     1       0.046  -8.445   0.749  1.00  0.00    -0.206 F 
HETATM   15  C   UNL     1       2.079  -7.251   0.693  1.00  0.00     0.045 A 
HETATM   16  C   UNL     1       2.749  -6.025   0.619  1.00  0.00     0.040 A 
ENDBRANCH   9  10
ENDBRANCH   1   9
TORSDOF 5
