REMARK  5 active torsions:
REMARK  status: ('A' for Active; 'I' for Inactive)
REMARK    1  A    between atoms: C_2  and  C_3 
REMARK       I    between atoms: C_2  and  N_13 
REMARK    2  A    between atoms: C_3  and  C_4 
REMARK    3  A    between atoms: C_4  and  O_5 
REMARK    4  A    between atoms: O_5  and  C_6 
REMARK    5  A    between atoms: N_13  and  O_14 
ROOT
HETATM    1  C   UNL     1       1.955   1.565  -1.909  1.00  0.00     0.185 C 
ENDROOT
BRANCH   1   2
HETATM    2  C   UNL     1       2.935   0.774  -1.056  1.00  0.00     0.131 C 
BRANCH   2   3
HETATM    3  C   UNL     1       2.203  -0.046  -0.021  1.00  0.00     0.242 C 
HETATM    4  O   UNL     1       0.982  -0.060   0.115  1.00  0.00    -0.271 OA
HETATM    5  N   UNL     1       3.030  -0.792   0.778  1.00  0.00    -0.237 N 
HETATM    6  H   UNL     1       4.042  -0.820   0.718  1.00  0.00     0.197 HD
BRANCH   5   7
HETATM    7  O   UNL     1       2.419  -1.579   1.776  1.00  0.00    -0.287 OA
HETATM    8  H   UNL     1       1.465  -1.379   1.653  1.00  0.00     0.244 HD
ENDBRANCH   5   7
ENDBRANCH   2   3
ENDBRANCH   1   2
BRANCH   1   9
HETATM    9  O   UNL     1       2.685   2.333  -2.873  1.00  0.00    -0.351 OA
BRANCH   9  10
HETATM   10  C   UNL     1       1.936   3.132  -3.699  1.00  0.00     0.070 A 
HETATM   11  C   UNL     1       0.539   3.215  -3.701  1.00  0.00     0.037 A 
HETATM   12  C   UNL     1      -0.119   4.072  -4.587  1.00  0.00     0.004 A 
HETATM   13  C   UNL     1       0.613   4.851  -5.479  1.00  0.00     0.024 A 
HETATM   14  C   UNL     1       2.003   4.767  -5.482  1.00  0.00     0.036 A 
HETATM   15 CL   UNL     1       2.907   5.733  -6.585  1.00  0.00    -0.084 Cl
HETATM   16  C   UNL     1       2.665   3.912  -4.600  1.00  0.00     0.060 A 
ENDBRANCH   9  10
ENDBRANCH   1   9
TORSDOF 5
