REMARK  5 active torsions:
REMARK  status: ('A' for Active; 'I' for Inactive)
REMARK    1  A    between atoms: C_7  and  O_8 
REMARK    2  A    between atoms: O_8  and  C_9 
REMARK    3  A    between atoms: C_9  and  C_10 
REMARK    4  A    between atoms: C_10  and  C_11 
REMARK       I    between atoms: C_11  and  N_13 
REMARK    5  A    between atoms: N_13  and  O_14 
ROOT
HETATM    1  O   UNL     1      -0.034  -3.171  -0.015  1.00  0.00    -0.351 OA
ENDROOT
BRANCH   1   2
HETATM    2  C   UNL     1       0.051  -1.802  -0.026  1.00  0.00     0.069 A 
HETATM    3  C   UNL     1      -1.167  -1.119  -0.001  1.00  0.00     0.043 A 
HETATM    4  C   UNL     1      -1.206   0.284  -0.001  1.00  0.00    -0.059 A 
HETATM    5  C   UNL     1      -0.002   1.000  -0.006  1.00  0.00     0.013 A 
HETATM    6  C   UNL     1      -2.523   1.000  -0.001  1.00  0.00     0.048 C 
HETATM    7  C   UNL     1       1.226   0.329  -0.010  1.00  0.00    -0.059 A 
HETATM    8  C   UNL     1       2.521   1.087   0.006  1.00  0.00     0.048 C 
HETATM    9  C   UNL     1       1.244  -1.074  -0.018  1.00  0.00     0.043 A 
ENDBRANCH   1   2
BRANCH   1  10
HETATM   10  C   UNL     1       1.058  -3.852  -0.643  1.00  0.00     0.185 C 
BRANCH  10  11
HETATM   11  C   UNL     1       0.805  -5.352  -0.584  1.00  0.00     0.131 C 
BRANCH  11  12
HETATM   12  C   UNL     1       1.932  -6.098  -1.254  1.00  0.00     0.242 C 
HETATM   13  O   UNL     1       2.905  -5.560  -1.778  1.00  0.00    -0.271 OA
HETATM   14  N   UNL     1       1.790  -7.462  -1.235  1.00  0.00    -0.237 N 
HETATM   15  H   UNL     1       1.032  -7.975  -0.801  1.00  0.00     0.197 HD
BRANCH  14  16
HETATM   16  O   UNL     1       2.824  -8.210  -1.839  1.00  0.00    -0.287 OA
HETATM   17  H   UNL     1       3.433  -7.508  -2.157  1.00  0.00     0.244 HD
ENDBRANCH  14  16
ENDBRANCH  11  12
ENDBRANCH  10  11
ENDBRANCH   1  10
TORSDOF 5
