REMARK  4 active torsions:
REMARK  status: ('A' for Active; 'I' for Inactive)
REMARK    1  A    between atoms: C_2  and  C_3 
REMARK       I    between atoms: C_2  and  N_13 
REMARK    2  A    between atoms: C_3  and  O_4 
REMARK    3  A    between atoms: O_4  and  C_5 
REMARK    4  A    between atoms: N_13  and  O_14 
ROOT
HETATM    1  C   UNL     1       2.749  -3.428   1.326  1.00  0.00     0.075 A 
HETATM    2  C   UNL     1       3.781  -3.468   2.265  1.00  0.00     0.079 A 
HETATM    3  C   UNL     1       4.304  -4.696   2.668  1.00  0.00     0.121 A 
HETATM    4  F   UNL     1       5.295  -4.717   3.570  1.00  0.00    -0.206 F 
HETATM    5  C   UNL     1       3.823  -5.890   2.157  1.00  0.00     0.084 A 
HETATM    6  C   UNL     1       2.796  -5.843   1.226  1.00  0.00     0.121 A 
HETATM    7  F   UNL     1       2.314  -6.986   0.722  1.00  0.00    -0.206 F 
HETATM    8  C   UNL     1       2.257  -4.628   0.807  1.00  0.00     0.079 A 
ENDROOT
BRANCH   1   9
HETATM    9  O   UNL     1       2.151  -2.293   0.844  1.00  0.00    -0.342 OA
BRANCH   9  10
HETATM   10  C   UNL     1       2.628  -1.054   1.367  1.00  0.00     0.280 C 
BRANCH  10  11
HETATM   11  C   UNL     1       1.909   0.150   0.767  1.00  0.00     0.265 C 
HETATM   12  O   UNL     1       2.174   1.310   1.083  1.00  0.00    -0.269 OA
HETATM   13  N   UNL     1       0.945  -0.149  -0.156  1.00  0.00    -0.236 N 
HETATM   14  H   UNL     1       0.714  -1.094  -0.447  1.00  0.00     0.197 HD
BRANCH  13  15
HETATM   15  O   UNL     1       0.259   0.926  -0.756  1.00  0.00    -0.287 OA
HETATM   16  H   UNL     1       0.682   1.707  -0.337  1.00  0.00     0.244 HD
ENDBRANCH  13  15
ENDBRANCH  10  11
ENDBRANCH   9  10
ENDBRANCH   1   9
TORSDOF 4
