REMARK  6 active torsions:
REMARK  status: ('A' for Active; 'I' for Inactive)
REMARK    1  A    between atoms: O_2  and  C_3 
REMARK    2  A    between atoms: C_6  and  O_7 
REMARK    3  A    between atoms: O_7  and  C_8 
REMARK    4  A    between atoms: C_8  and  C_9 
REMARK    5  A    between atoms: C_9  and  C_10 
REMARK       I    between atoms: C_10  and  N_12 
REMARK    6  A    between atoms: N_12  and  O_13 
ROOT
HETATM    1  O   UNL     1       5.670  -3.433   2.833  1.00  0.00    -0.351 OA
ENDROOT
BRANCH   1   2
HETATM    2  C   UNL     1       4.801  -2.627   2.145  1.00  0.00     0.068 A 
HETATM    3  C   UNL     1       3.579  -3.022   1.598  1.00  0.00     0.039 A 
HETATM    4  C   UNL     1       2.775  -2.105   0.908  1.00  0.00     0.039 A 
HETATM    5  C   UNL     1       3.189  -0.782   0.755  1.00  0.00     0.068 A 
HETATM    6  C   UNL     1       4.407  -0.385   1.310  1.00  0.00     0.039 A 
HETATM    7  C   UNL     1       5.208  -1.300   1.999  1.00  0.00     0.039 A 
BRANCH   5   8
HETATM    8  O   UNL     1       2.506   0.200   0.094  1.00  0.00    -0.356 OA
HETATM    9  C   UNL     1       1.280  -0.176  -0.522  1.00  0.00     0.210 C 
ENDBRANCH   5   8
ENDBRANCH   1   2
BRANCH   1  10
HETATM   10  C   UNL     1       5.274  -4.799   2.978  1.00  0.00     0.185 C 
BRANCH  10  11
HETATM   11  C   UNL     1       6.351  -5.545   3.750  1.00  0.00     0.131 C 
BRANCH  11  12
HETATM   12  C   UNL     1       5.961  -6.992   3.920  1.00  0.00     0.242 C 
HETATM   13  O   UNL     1       4.910  -7.478   3.509  1.00  0.00    -0.271 OA
HETATM   14  N   UNL     1       6.891  -7.748   4.582  1.00  0.00    -0.237 N 
HETATM   15  H   UNL     1       7.719  -7.390   5.048  1.00  0.00     0.197 HD
BRANCH  14  16
HETATM   16  O   UNL     1       6.552  -9.099   4.814  1.00  0.00    -0.287 OA
HETATM   17  H   UNL     1       5.666  -9.170   4.387  1.00  0.00     0.244 HD
ENDBRANCH  14  16
ENDBRANCH  11  12
ENDBRANCH  10  11
ENDBRANCH   1  10
TORSDOF 6
