REMARK  5 active torsions:
REMARK  status: ('A' for Active; 'I' for Inactive)
REMARK    1  A    between atoms: C_6  and  O_7 
REMARK    2  A    between atoms: O_7  and  C_8 
REMARK    3  A    between atoms: C_8  and  C_9 
REMARK    4  A    between atoms: C_9  and  C_10 
REMARK       I    between atoms: C_10  and  N_12 
REMARK    5  A    between atoms: N_12  and  O_13 
ROOT
HETATM    1  O   UNL     1      -1.816  -2.421   0.003  1.00  0.00    -0.351 OA
ENDROOT
BRANCH   1   2
HETATM    2  C   UNL     1      -1.204  -1.193  -0.001  1.00  0.00     0.069 A 
HETATM    3  C   UNL     1      -1.856   0.042  -0.004  1.00  0.00     0.037 A 
HETATM    4  C   UNL     1      -1.119   1.228  -0.008  1.00  0.00     0.003 A 
HETATM    5  C   UNL     1       0.273   1.190  -0.009  1.00  0.00     0.007 A 
HETATM    6  C   UNL     1       0.945  -0.036  -0.005  1.00  0.00    -0.059 A 
HETATM    7  C   UNL     1       2.443  -0.088  -0.010  1.00  0.00     0.048 C 
HETATM    8  C   UNL     1       0.196  -1.223  -0.002  1.00  0.00     0.043 A 
ENDBRANCH   1   2
BRANCH   1   9
HETATM    9  C   UNL     1      -3.246  -2.402  -0.000  1.00  0.00     0.185 C 
BRANCH   9  10
HETATM   10  C   UNL     1      -3.767  -3.831   0.003  1.00  0.00     0.131 C 
BRANCH  10  11
HETATM   11  C   UNL     1      -5.275  -3.833  -0.003  1.00  0.00     0.242 C 
HETATM   12  O   UNL     1      -5.970  -2.818   0.004  1.00  0.00    -0.271 OA
HETATM   13  N   UNL     1      -5.833  -5.085  -0.019  1.00  0.00    -0.237 N 
HETATM   14  H   UNL     1      -5.327  -5.962   0.031  1.00  0.00     0.197 HD
BRANCH  13  15
HETATM   15  O   UNL     1      -7.244  -5.144   0.001  1.00  0.00    -0.287 OA
HETATM   16  H   UNL     1      -7.494  -4.194   0.012  1.00  0.00     0.244 HD
ENDBRANCH  13  15
ENDBRANCH  10  11
ENDBRANCH   9  10
ENDBRANCH   1   9
TORSDOF 5
