REMARK  4 active torsions:
REMARK  status: ('A' for Active; 'I' for Inactive)
REMARK    1  A    between atoms: C_2  and  C_3 
REMARK       I    between atoms: C_2  and  N_13 
REMARK    2  A    between atoms: C_3  and  O_4 
REMARK    3  A    between atoms: O_4  and  C_5 
REMARK    4  A    between atoms: N_13  and  O_14 
ROOT
HETATM    1  C   UNL     1       2.684  -0.417   3.653  1.00  0.00     0.072 A 
HETATM    2  C   UNL     1       3.727   0.360   4.156  1.00  0.00     0.060 A 
HETATM    3  C   UNL     1       4.163   0.175   5.471  1.00  0.00     0.038 A 
HETATM    4 CL   UNL     1       5.441   1.152   6.084  1.00  0.00    -0.084 Cl
HETATM    5  C   UNL     1       3.574  -0.780   6.293  1.00  0.00     0.048 A 
HETATM    6  C   UNL     1       2.538  -1.558   5.786  1.00  0.00     0.038 A 
HETATM    7 CL   UNL     1       1.792  -2.739   6.791  1.00  0.00    -0.084 Cl
HETATM    8  C   UNL     1       2.094  -1.384   4.475  1.00  0.00     0.060 A 
ENDROOT
BRANCH   1   9
HETATM    9  O   UNL     1       2.160  -0.333   2.391  1.00  0.00    -0.342 OA
BRANCH   9  10
HETATM   10  C   UNL     1       2.686   0.683   1.538  1.00  0.00     0.280 C 
BRANCH  10  11
HETATM   11  C   UNL     1       1.986   0.704   0.179  1.00  0.00     0.265 C 
HETATM   12  O   UNL     1       2.286   1.490  -0.719  1.00  0.00    -0.269 OA
HETATM   13  N   UNL     1       0.992  -0.226   0.037  1.00  0.00    -0.236 N 
HETATM   14  H   UNL     1       0.757  -0.898   0.761  1.00  0.00     0.197 HD
BRANCH  13  15
HETATM   15  O   UNL     1       0.309  -0.303  -1.192  1.00  0.00    -0.287 OA
HETATM   16  H   UNL     1       0.760   0.384  -1.731  1.00  0.00     0.244 HD
ENDBRANCH  13  15
ENDBRANCH  10  11
ENDBRANCH   9  10
ENDBRANCH   1   9
TORSDOF 4
