REMARK  4 active torsions:
REMARK  status: ('A' for Active; 'I' for Inactive)
REMARK    1  A    between atoms: C_7  and  O_8 
REMARK    2  A    between atoms: O_8  and  C_9 
REMARK    3  A    between atoms: C_9  and  C_10 
REMARK       I    between atoms: C_10  and  N_12 
REMARK    4  A    between atoms: N_12  and  O_13 
ROOT
HETATM    1  C   UNL     1       2.528   1.081   0.005  1.00  0.00     0.048 C 
HETATM    2  C   UNL     1       1.231   0.326  -0.013  1.00  0.00    -0.059 A 
HETATM    3  C   UNL     1       0.007   1.007  -0.010  1.00  0.00     0.013 A 
HETATM    4  C   UNL     1      -1.201   0.303  -0.005  1.00  0.00    -0.059 A 
HETATM    5  C   UNL     1      -2.518   1.022  -0.004  1.00  0.00     0.048 C 
HETATM    6  C   UNL     1      -1.172  -1.097  -0.001  1.00  0.00     0.043 A 
HETATM    7  C   UNL     1       0.042  -1.792  -0.021  1.00  0.00     0.070 A 
HETATM    8  C   UNL     1       1.240  -1.078  -0.018  1.00  0.00     0.043 A 
ENDROOT
BRANCH   7   9
HETATM    9  O   UNL     1      -0.073  -3.153   0.017  1.00  0.00    -0.342 OA
BRANCH   9  10
HETATM   10  C   UNL     1       0.975  -3.891  -0.608  1.00  0.00     0.280 C 
BRANCH  10  11
HETATM   11  C   UNL     1       0.692  -5.388  -0.532  1.00  0.00     0.265 C 
HETATM   12  O   UNL     1       1.446  -6.238  -1.006  1.00  0.00    -0.269 OA
HETATM   13  N   UNL     1      -0.466  -5.729   0.115  1.00  0.00    -0.236 N 
HETATM   14  H   UNL     1      -1.101  -5.049   0.522  1.00  0.00     0.197 HD
BRANCH  13  15
HETATM   15  O   UNL     1      -0.775  -7.099   0.230  1.00  0.00    -0.287 OA
HETATM   16  H   UNL     1      -0.015  -7.524  -0.223  1.00  0.00     0.244 HD
ENDBRANCH  13  15
ENDBRANCH  10  11
ENDBRANCH   9  10
ENDBRANCH   7   9
TORSDOF 4
