REMARK  5 active torsions:
REMARK  status: ('A' for Active; 'I' for Inactive)
REMARK    1  A    between atoms: O_1  and  C_2 
REMARK    2  A    between atoms: C_5  and  C_6 
REMARK    3  A    between atoms: C_6  and  C_7 
REMARK    4  A    between atoms: C_7  and  C_8 
REMARK    5  A    between atoms: C_16  and  O_17 
ROOT
HETATM    1  C   UNL     1       0.466  -0.843   0.120  1.00  0.00     0.098 A 
HETATM    2  C   UNL     1      -0.075  -0.479  -1.111  1.00  0.00     0.040 A 
HETATM    3  C   UNL     1      -1.257   0.267  -1.156  1.00  0.00     0.010 A 
HETATM    4  C   UNL     1      -1.902   0.658   0.028  1.00  0.00    -0.055 A 
HETATM    5  C   UNL     1      -1.353   0.274   1.261  1.00  0.00     0.046 A 
HETATM    6  C   UNL     1      -0.172  -0.470   1.302  1.00  0.00     0.099 A 
ENDROOT
BRANCH   4   7
HETATM    7  C   UNL     1      -3.170   1.482  -0.019  1.00  0.00     0.043 C 
BRANCH   7   8
HETATM    8  C   UNL     1      -4.434   0.617  -0.038  1.00  0.00     0.043 C 
BRANCH   8   9
HETATM    9  C   UNL     1      -5.697   1.449   0.009  1.00  0.00    -0.058 A 
HETATM   10  C   UNL     1      -6.312   1.885  -1.173  1.00  0.00     0.009 A 
HETATM   11  C   UNL     1      -7.482   2.650  -1.125  1.00  0.00     0.024 A 
HETATM   12  C   UNL     1      -8.039   2.986   0.106  1.00  0.00     0.034 A 
HETATM   13 CL   UNL     1      -9.483   3.921   0.166  1.00  0.00    -0.084 Cl
HETATM   14  C   UNL     1      -7.435   2.570   1.290  1.00  0.00     0.024 A 
HETATM   15  C   UNL     1      -6.266   1.805   1.241  1.00  0.00     0.009 A 
ENDBRANCH   8   9
ENDBRANCH   7   8
ENDBRANCH   4   7
BRANCH   6  16
HETATM   16  O   UNL     1       0.374  -0.834   2.501  1.00  0.00    -0.358 OA
HETATM   17  H   UNL     1      -0.165  -0.470   3.219  1.00  0.00     0.217 HD
ENDBRANCH   6  16
BRANCH   1  18
HETATM   18  O   UNL     1       1.626  -1.563   0.183  1.00  0.00    -0.358 OA
HETATM   19  H   UNL     1       1.945  -1.731  -0.717  1.00  0.00     0.217 HD
ENDBRANCH   1  18
TORSDOF 5
