REMARK  4 active torsions:
REMARK  status: ('A' for Active; 'I' for Inactive)
REMARK    1  A    between atoms: C_7  and  O_8 
REMARK    2  A    between atoms: O_8  and  C_9 
REMARK    3  A    between atoms: C_9  and  C_10 
REMARK       I    between atoms: C_10  and  N_12 
REMARK    4  A    between atoms: N_12  and  O_13 
ROOT
HETATM    1  O   UNL     1       1.044  -2.323   0.174  1.00  0.00    -0.342 OA
ENDROOT
BRANCH   1   2
HETATM    2  C   UNL     1       0.297  -1.171   0.058  1.00  0.00     0.075 A 
HETATM    3  C   UNL     1       0.992   0.051   0.020  1.00  0.00    -0.029 A 
HETATM    4  C   UNL     1       2.494   0.114   0.009  1.00  0.00     0.051 C 
HETATM    5  C   UNL     1       0.263   1.253  -0.011  1.00  0.00     0.009 A 
HETATM    6  C   UNL     1      -1.131   1.245  -0.025  1.00  0.00     0.001 A 
HETATM    7  C   UNL     1      -1.813   0.035  -0.043  1.00  0.00     0.003 A 
HETATM    8  C   UNL     1      -1.104  -1.165  -0.016  1.00  0.00     0.037 A 
ENDBRANCH   1   2
BRANCH   1   9
HETATM    9  C   UNL     1       0.318  -3.458   0.653  1.00  0.00     0.280 C 
BRANCH   9  10
HETATM   10  C   UNL     1       1.188  -4.592   1.172  1.00  0.00     0.265 C 
HETATM   11  O   UNL     1       0.723  -5.601   1.708  1.00  0.00    -0.269 OA
HETATM   12  N   UNL     1       2.533  -4.425   0.999  1.00  0.00    -0.236 N 
HETATM   13  H   UNL     1       2.954  -3.637   0.515  1.00  0.00     0.197 HD
BRANCH  12  14
HETATM   14  O   UNL     1       3.374  -5.462   1.454  1.00  0.00    -0.287 OA
HETATM   15  H   UNL     1       2.730  -6.097   1.839  1.00  0.00     0.244 HD
ENDBRANCH  12  14
ENDBRANCH   9  10
ENDBRANCH   1   9
TORSDOF 4
