REMARK  4 active torsions:
REMARK  status: ('A' for Active; 'I' for Inactive)
REMARK    1  A    between atoms: C_2  and  C_3 
REMARK       I    between atoms: C_2  and  N_12 
REMARK    2  A    between atoms: C_3  and  O_4 
REMARK    3  A    between atoms: O_4  and  C_5 
REMARK    4  A    between atoms: N_12  and  O_13 
ROOT
HETATM    1  O   UNL     1       2.148   0.992  -2.182  1.00  0.00    -0.339 OA
ENDROOT
BRANCH   1   2
HETATM    2  C   UNL     1       2.791  -0.105  -1.530  1.00  0.00     0.280 C 
BRANCH   2   3
HETATM    3  C   UNL     1       2.092  -0.439  -0.210  1.00  0.00     0.265 C 
HETATM    4  O   UNL     1       2.429  -1.372   0.515  1.00  0.00    -0.269 OA
HETATM    5  N   UNL     1       1.050   0.393   0.105  1.00  0.00    -0.236 N 
HETATM    6  H   UNL     1       0.701   1.101  -0.536  1.00  0.00     0.197 HD
BRANCH   5   7
HETATM    7  O   UNL     1       0.303   0.120   1.268  1.00  0.00    -0.287 OA
HETATM    8  H   UNL     1       0.723  -0.702   1.604  1.00  0.00     0.244 HD
ENDBRANCH   5   7
ENDBRANCH   2   3
ENDBRANCH   1   2
BRANCH   1   9
HETATM    9  C   UNL     1       2.637   1.377  -3.402  1.00  0.00     0.107 A 
HETATM   10  C   UNL     1       1.967   2.464  -3.974  1.00  0.00     0.040 A 
HETATM   11  C   UNL     1       2.347   2.964  -5.224  1.00  0.00     0.003 A 
HETATM   12  C   UNL     1       3.405   2.379  -5.917  1.00  0.00     0.003 A 
HETATM   13  C   UNL     1       4.082   1.298  -5.356  1.00  0.00     0.045 A 
HETATM   14  C   UNL     1       3.700   0.805  -4.107  1.00  0.00     0.149 A 
HETATM   15  F   UNL     1       4.387  -0.233  -3.612  1.00  0.00    -0.203 F 
ENDBRANCH   1   9
TORSDOF 4
