REMARK  4 active torsions:
REMARK  status: ('A' for Active; 'I' for Inactive)
REMARK    1  A    between atoms: C_2  and  C_3 
REMARK       I    between atoms: C_2  and  N_11 
REMARK    2  A    between atoms: C_3  and  O_4 
REMARK    3  A    between atoms: O_4  and  C_5 
REMARK    4  A    between atoms: N_11  and  O_12 
ROOT
HETATM    1  C   UNL     1       2.703   1.234  -0.860  1.00  0.00     0.280 C 
ENDROOT
BRANCH   1   2
HETATM    2  C   UNL     1       2.024  -0.065  -0.430  1.00  0.00     0.265 C 
HETATM    3  O   UNL     1       2.344  -1.168  -0.872  1.00  0.00    -0.269 OA
HETATM    4  N   UNL     1       1.022   0.090   0.491  1.00  0.00    -0.236 N 
HETATM    5  H   UNL     1       0.755   0.992   0.874  1.00  0.00     0.197 HD
BRANCH   4   6
HETATM    6  O   UNL     1       0.356  -1.063   0.950  1.00  0.00    -0.287 OA
HETATM    7  H   UNL     1       0.819  -1.782   0.468  1.00  0.00     0.244 HD
ENDBRANCH   4   6
ENDBRANCH   1   2
BRANCH   1   8
HETATM    8  O   UNL     1       2.150   2.350  -0.166  1.00  0.00    -0.342 OA
BRANCH   8   9
HETATM    9  C   UNL     1       2.634   3.588  -0.487  1.00  0.00     0.069 A 
HETATM   10  C   UNL     1       3.670   3.859  -1.382  1.00  0.00     0.037 A 
HETATM   11  C   UNL     1       4.060   5.181  -1.623  1.00  0.00     0.003 A 
HETATM   12  C   UNL     1       3.419   6.234  -0.974  1.00  0.00     0.000 A 
HETATM   13  C   UNL     1       2.389   5.968  -0.076  1.00  0.00     0.003 A 
HETATM   14  C   UNL     1       2.001   4.649   0.167  1.00  0.00     0.037 A 
ENDBRANCH   8   9
ENDBRANCH   1   8
TORSDOF 4
