REMARK  4 active torsions:
REMARK  status: ('A' for Active; 'I' for Inactive)
REMARK    1  A    between atoms: C_2  and  C_3 
REMARK       I    between atoms: C_2  and  N_12 
REMARK    2  A    between atoms: C_3  and  O_4 
REMARK    3  A    between atoms: O_4  and  C_5 
REMARK    4  A    between atoms: N_12  and  O_13 
ROOT
HETATM    1  O   UNL     1       2.049  -2.351  -0.456  1.00  0.00    -0.340 OA
ENDROOT
BRANCH   1   2
HETATM    2  C   UNL     1       0.660  -2.129  -0.689  1.00  0.00     0.280 C 
BRANCH   2   3
HETATM    3  C   UNL     1       0.160  -0.793  -0.149  1.00  0.00     0.265 C 
HETATM    4  O   UNL     1      -1.005  -0.419  -0.292  1.00  0.00    -0.269 OA
HETATM    5  N   UNL     1       1.095  -0.019   0.482  1.00  0.00    -0.236 N 
HETATM    6  H   UNL     1       2.092  -0.217   0.443  1.00  0.00     0.197 HD
BRANCH   5   7
HETATM    7  O   UNL     1       0.687   1.283   0.849  1.00  0.00    -0.287 OA
HETATM    8  H   UNL     1      -0.245   1.307   0.539  1.00  0.00     0.244 HD
ENDBRANCH   5   7
ENDBRANCH   2   3
ENDBRANCH   1   2
BRANCH   1   9
HETATM    9  C   UNL     1       2.521  -3.568  -0.890  1.00  0.00     0.091 A 
HETATM   10  C   UNL     1       2.038  -4.215  -2.033  1.00  0.00     0.038 A 
HETATM   11  C   UNL     1       2.568  -5.444  -2.435  1.00  0.00     0.003 A 
HETATM   12  C   UNL     1       3.598  -6.034  -1.709  1.00  0.00     0.002 A 
HETATM   13  C   UNL     1       4.109  -5.389  -0.582  1.00  0.00     0.026 A 
HETATM   14  C   UNL     1       3.579  -4.157  -0.179  1.00  0.00     0.067 A 
HETATM   15 CL   UNL     1       4.251  -3.404   1.223  1.00  0.00    -0.081 Cl
ENDBRANCH   1   9
TORSDOF 4
