REMARK  4 active torsions:
REMARK  status: ('A' for Active; 'I' for Inactive)
REMARK    1  A    between atoms: C_2  and  C_3 
REMARK       I    between atoms: C_2  and  N_13 
REMARK    2  A    between atoms: C_3  and  O_4 
REMARK    3  A    between atoms: O_4  and  C_5 
REMARK    4  A    between atoms: N_13  and  O_14 
ROOT
HETATM    1  C   UNL     1       2.687   2.182   2.964  1.00  0.00     0.092 A 
HETATM    2  C   UNL     1       3.707   3.132   2.852  1.00  0.00     0.062 A 
HETATM    3  C   UNL     1       4.182   3.788   3.991  1.00  0.00     0.036 A 
HETATM    4 CL   UNL     1       5.428   4.965   3.834  1.00  0.00    -0.084 Cl
HETATM    5  C   UNL     1       3.652   3.509   5.249  1.00  0.00     0.026 A 
HETATM    6  C   UNL     1       2.629   2.568   5.370  1.00  0.00     0.028 A 
HETATM    7  C   UNL     1       2.144   1.915   4.234  1.00  0.00     0.067 A 
HETATM    8 CL   UNL     1       0.874   0.761   4.440  1.00  0.00    -0.081 Cl
ENDROOT
BRANCH   1   9
HETATM    9  O   UNL     1       2.135   1.520   1.896  1.00  0.00    -0.340 OA
BRANCH   9  10
HETATM   10  C   UNL     1       2.953   1.369   0.739  1.00  0.00     0.280 C 
BRANCH  10  11
HETATM   11  C   UNL     1       2.228   0.599  -0.358  1.00  0.00     0.265 C 
HETATM   12  O   UNL     1       2.783   0.230  -1.393  1.00  0.00    -0.269 OA
HETATM   13  N   UNL     1       0.892   0.383  -0.133  1.00  0.00    -0.236 N 
HETATM   14  H   UNL     1       0.476   0.477   0.791  1.00  0.00     0.197 HD
BRANCH  13  15
HETATM   15  O   UNL     1       0.201  -0.390  -1.091  1.00  0.00    -0.287 OA
HETATM   16  H   UNL     1       0.895  -0.564  -1.764  1.00  0.00     0.244 HD
ENDBRANCH  13  15
ENDBRANCH  10  11
ENDBRANCH   9  10
ENDBRANCH   1   9
TORSDOF 4
