REMARK  4 active torsions:
REMARK  status: ('A' for Active; 'I' for Inactive)
REMARK    1  A    between atoms: C_2  and  C_3 
REMARK       I    between atoms: C_2  and  N_12 
REMARK    2  A    between atoms: C_3  and  O_4 
REMARK    3  A    between atoms: O_4  and  C_5 
REMARK    4  A    between atoms: N_12  and  O_13 
ROOT
HETATM    1  O   UNL     1       2.166  -0.655   2.228  1.00  0.00    -0.342 OA
ENDROOT
BRANCH   1   2
HETATM    2  C   UNL     1       1.579  -1.718   1.474  1.00  0.00     0.280 C 
BRANCH   2   3
HETATM    3  C   UNL     1       1.585  -1.429  -0.022  1.00  0.00     0.265 C 
HETATM    4  O   UNL     1       1.132  -2.209  -0.856  1.00  0.00    -0.269 OA
HETATM    5  N   UNL     1       2.144  -0.228  -0.370  1.00  0.00    -0.236 N 
HETATM    6  H   UNL     1       2.436   0.465   0.313  1.00  0.00     0.197 HD
BRANCH   5   7
HETATM    7  O   UNL     1       2.130   0.132  -1.731  1.00  0.00    -0.287 OA
HETATM    8  H   UNL     1       1.649  -0.618  -2.144  1.00  0.00     0.244 HD
ENDBRANCH   5   7
ENDBRANCH   2   3
ENDBRANCH   1   2
BRANCH   1   9
HETATM    9  C   UNL     1       2.572  -1.003   3.489  1.00  0.00     0.069 A 
HETATM   10  C   UNL     1       3.593  -0.222   4.038  1.00  0.00     0.038 A 
HETATM   11  C   UNL     1       4.120  -0.535   5.294  1.00  0.00     0.026 A 
HETATM   12  C   UNL     1       3.611  -1.619   6.006  1.00  0.00     0.034 A 
HETATM   13 CL   UNL     1       4.276  -2.029   7.538  1.00  0.00    -0.084 Cl
HETATM   14  C   UNL     1       2.564  -2.374   5.484  1.00  0.00     0.026 A 
HETATM   15  C   UNL     1       2.036  -2.059   4.230  1.00  0.00     0.038 A 
ENDBRANCH   1   9
TORSDOF 4
