REMARK  4 active torsions:
REMARK  status: ('A' for Active; 'I' for Inactive)
REMARK    1  A    between atoms: C_2  and  C_3 
REMARK       I    between atoms: C_2  and  N_13 
REMARK    2  A    between atoms: C_3  and  O_4 
REMARK    3  A    between atoms: O_4  and  C_5 
REMARK    4  A    between atoms: N_13  and  O_14 
ROOT
HETATM    1  C   UNL     1       2.786   1.619   3.297  1.00  0.00     0.112 A 
HETATM    2  C   UNL     1       3.802   2.567   3.499  1.00  0.00     0.069 A 
HETATM    3 CL   UNL     1       4.558   3.514   2.263  1.00  0.00    -0.081 Cl
HETATM    4  C   UNL     1       4.253   2.869   4.797  1.00  0.00     0.027 A 
HETATM    5  C   UNL     1       3.697   2.251   5.911  1.00  0.00     0.003 A 
HETATM    6  C   UNL     1       2.683   1.319   5.736  1.00  0.00     0.027 A 
HETATM    7  C   UNL     1       2.233   1.010   4.444  1.00  0.00     0.069 A 
HETATM    8 CL   UNL     1       0.960  -0.163   4.318  1.00  0.00    -0.081 Cl
ENDROOT
BRANCH   1   9
HETATM    9  O   UNL     1       2.190   1.258   2.109  1.00  0.00    -0.339 OA
BRANCH   9  10
HETATM   10  C   UNL     1       2.965   1.258   0.919  1.00  0.00     0.280 C 
BRANCH  10  11
HETATM   11  C   UNL     1       2.222   0.694  -0.289  1.00  0.00     0.265 C 
HETATM   12  O   UNL     1       2.691   0.728  -1.430  1.00  0.00    -0.269 OA
HETATM   13  N   UNL     1       0.973   0.188  -0.040  1.00  0.00    -0.236 N 
HETATM   14  H   UNL     1       0.480   0.384   0.826  1.00  0.00     0.197 HD
BRANCH  13  15
HETATM   15  O   UNL     1       0.192  -0.100  -1.185  1.00  0.00    -0.287 OA
HETATM   16  H   UNL     1       0.778   0.185  -1.921  1.00  0.00     0.244 HD
ENDBRANCH  13  15
ENDBRANCH  10  11
ENDBRANCH   9  10
ENDBRANCH   1   9
TORSDOF 4
