REMARK  4 active torsions:
REMARK  status: ('A' for Active; 'I' for Inactive)
REMARK    1  A    between atoms: C_2  and  C_3 
REMARK       I    between atoms: C_2  and  N_13 
REMARK    2  A    between atoms: C_3  and  O_4 
REMARK    3  A    between atoms: O_4  and  C_5 
REMARK    4  A    between atoms: N_13  and  O_14 
ROOT
HETATM    1  C   UNL     1       2.556   2.784   2.465  1.00  0.00     0.071 A 
HETATM    2  C   UNL     1       3.610   3.609   2.075  1.00  0.00     0.038 A 
HETATM    3  C   UNL     1       4.000   4.673   2.895  1.00  0.00     0.028 A 
HETATM    4  C   UNL     1       3.346   4.909   4.110  1.00  0.00     0.056 A 
HETATM    5 CL   UNL     1       3.867   6.253   5.060  1.00  0.00    -0.083 Cl
HETATM    6  C   UNL     1       2.309   4.063   4.514  1.00  0.00     0.058 A 
HETATM    7 CL   UNL     1       1.457   4.278   6.000  1.00  0.00    -0.082 Cl
HETATM    8  C   UNL     1       1.925   2.995   3.693  1.00  0.00     0.062 A 
ENDROOT
BRANCH   1   9
HETATM    9  O   UNL     1       2.086   1.720   1.751  1.00  0.00    -0.342 OA
BRANCH   9  10
HETATM   10  C   UNL     1       2.157   1.835   0.329  1.00  0.00     0.280 C 
BRANCH  10  11
HETATM   11  C   UNL     1       1.035   1.024  -0.320  1.00  0.00     0.265 C 
HETATM   12  O   UNL     1       0.913   0.903  -1.539  1.00  0.00    -0.269 OA
HETATM   13  N   UNL     1       0.152   0.459   0.564  1.00  0.00    -0.236 N 
HETATM   14  H   UNL     1       0.316   0.442   1.566  1.00  0.00     0.197 HD
BRANCH  13  15
HETATM   15  O   UNL     1      -0.876  -0.351   0.043  1.00  0.00    -0.287 OA
HETATM   16  H   UNL     1      -0.712  -0.311  -0.924  1.00  0.00     0.244 HD
ENDBRANCH  13  15
ENDBRANCH  10  11
ENDBRANCH   9  10
ENDBRANCH   1   9
TORSDOF 4
