REMARK  5 active torsions:
REMARK  status: ('A' for Active; 'I' for Inactive)
REMARK    1  A    between atoms: C_2  and  C_3 
REMARK       I    between atoms: C_2  and  N_12 
REMARK    2  A    between atoms: C_3  and  C_4 
REMARK    3  A    between atoms: C_4  and  O_5 
REMARK    4  A    between atoms: O_5  and  C_6 
REMARK    5  A    between atoms: N_12  and  O_13 
ROOT
HETATM    1  C   UNL     1       1.987  -1.869  -1.417  1.00  0.00     0.185 C 
ENDROOT
BRANCH   1   2
HETATM    2  C   UNL     1       2.988  -0.990  -0.681  1.00  0.00     0.131 C 
BRANCH   2   3
HETATM    3  C   UNL     1       2.268   0.081   0.104  1.00  0.00     0.242 C 
HETATM    4  O   UNL     1       1.046   0.184   0.180  1.00  0.00    -0.271 OA
HETATM    5  N   UNL     1       3.109   0.956   0.745  1.00  0.00    -0.237 N 
HETATM    6  H   UNL     1       4.106   0.813   0.872  1.00  0.00     0.197 HD
BRANCH   5   7
HETATM    7  O   UNL     1       2.491   1.927   1.564  1.00  0.00    -0.287 OA
HETATM    8  H   UNL     1       1.536   1.730   1.443  1.00  0.00     0.244 HD
ENDBRANCH   5   7
ENDBRANCH   2   3
ENDBRANCH   1   2
BRANCH   1   9
HETATM    9  O   UNL     1       2.692  -2.870  -2.156  1.00  0.00    -0.351 OA
BRANCH   9  10
HETATM   10  C   UNL     1       1.914  -3.725  -2.897  1.00  0.00     0.068 A 
HETATM   11  C   UNL     1       0.517  -3.710  -2.952  1.00  0.00     0.037 A 
HETATM   12  C   UNL     1      -0.168  -4.631  -3.749  1.00  0.00     0.003 A 
HETATM   13  C   UNL     1       0.536  -5.573  -4.494  1.00  0.00     0.000 A 
HETATM   14  C   UNL     1       1.928  -5.597  -4.442  1.00  0.00     0.003 A 
HETATM   15  C   UNL     1       2.614  -4.675  -3.646  1.00  0.00     0.037 A 
ENDBRANCH   9  10
ENDBRANCH   1   9
TORSDOF 5
