REMARK  5 active torsions:
REMARK  status: ('A' for Active; 'I' for Inactive)
REMARK    1  A    between atoms: C_2  and  C_3 
REMARK       I    between atoms: C_2  and  N_13 
REMARK    2  A    between atoms: C_3  and  C_4 
REMARK    3  A    between atoms: C_4  and  O_5 
REMARK    4  A    between atoms: O_5  and  C_6 
REMARK    5  A    between atoms: N_13  and  O_14 
ROOT
HETATM    1  C   UNL     1       2.058   0.975  -2.178  1.00  0.00     0.185 C 
ENDROOT
BRANCH   1   2
HETATM    2  C   UNL     1       3.041   0.497  -1.121  1.00  0.00     0.131 C 
BRANCH   2   3
HETATM    3  C   UNL     1       2.309   0.020   0.108  1.00  0.00     0.242 C 
HETATM    4  O   UNL     1       1.084  -0.015   0.216  1.00  0.00    -0.271 OA
HETATM    5  N   UNL     1       3.138  -0.385   1.123  1.00  0.00    -0.237 N 
HETATM    6  H   UNL     1       4.144  -0.496   1.050  1.00  0.00     0.197 HD
BRANCH   5   7
HETATM    7  O   UNL     1       2.515  -0.895   2.283  1.00  0.00    -0.287 OA
HETATM    8  H   UNL     1       1.560  -0.809   2.066  1.00  0.00     0.244 HD
ENDBRANCH   5   7
ENDBRANCH   2   3
ENDBRANCH   1   2
BRANCH   1   9
HETATM    9  O   UNL     1       2.790   1.419  -3.322  1.00  0.00    -0.351 OA
BRANCH   9  10
HETATM   10  C   UNL     1       2.046   1.915  -4.361  1.00  0.00     0.068 A 
HETATM   11  C   UNL     1       0.650   1.982  -4.403  1.00  0.00     0.038 A 
HETATM   12  C   UNL     1       0.002   2.518  -5.521  1.00  0.00     0.026 A 
HETATM   13  C   UNL     1       0.749   2.987  -6.599  1.00  0.00     0.034 A 
HETATM   14 CL   UNL     1      -0.052   3.649  -7.969  1.00  0.00    -0.084 Cl
HETATM   15  C   UNL     1       2.139   2.922  -6.569  1.00  0.00     0.026 A 
HETATM   16  C   UNL     1       2.785   2.386  -5.450  1.00  0.00     0.038 A 
ENDBRANCH   9  10
ENDBRANCH   1   9
TORSDOF 5
