REMARK  5 active torsions:
REMARK  status: ('A' for Active; 'I' for Inactive)
REMARK    1  A    between atoms: O_2  and  C_3 
REMARK    2  A    between atoms: C_6  and  C_7 
REMARK    3  A    between atoms: C_7  and  C_8 
REMARK    4  A    between atoms: C_8  and  C_9 
REMARK    5  A    between atoms: C_17  and  O_18 
ROOT
HETATM    1  C   UNL     1       2.926  -0.131   1.057  1.00  0.00     0.101 A 
HETATM    2  C   UNL     1       2.559  -1.078   2.018  1.00  0.00     0.040 A 
HETATM    3  C   UNL     1       3.294  -1.235   3.196  1.00  0.00     0.010 A 
HETATM    4  C   UNL     1       4.442  -0.477   3.434  1.00  0.00    -0.055 A 
HETATM    5  C   UNL     1       4.808   0.477   2.473  1.00  0.00     0.046 A 
HETATM    6  C   UNL     1       4.060   0.663   1.296  1.00  0.00     0.102 A 
ENDROOT
BRANCH   4   7
HETATM    7  C   UNL     1       5.251  -0.609   4.711  1.00  0.00     0.043 C 
BRANCH   7   8
HETATM    8  C   UNL     1       5.261  -2.024   5.310  1.00  0.00     0.043 C 
BRANCH   8   9
HETATM    9  C   UNL     1       6.085  -2.181   6.567  1.00  0.00    -0.058 A 
HETATM   10  C   UNL     1       5.798  -1.429   7.715  1.00  0.00     0.009 A 
HETATM   11  C   UNL     1       6.500  -1.652   8.902  1.00  0.00     0.024 A 
HETATM   12  C   UNL     1       7.489  -2.632   8.949  1.00  0.00     0.034 A 
HETATM   13 CL   UNL     1       8.334  -2.926  10.419  1.00  0.00    -0.084 Cl
HETATM   14  C   UNL     1       7.787  -3.385   7.817  1.00  0.00     0.024 A 
HETATM   15  C   UNL     1       7.087  -3.160   6.630  1.00  0.00     0.009 A 
ENDBRANCH   8   9
ENDBRANCH   7   8
ENDBRANCH   4   7
BRANCH   6  16
HETATM   16  O   UNL     1       4.582   1.627   0.470  1.00  0.00    -0.353 OA
HETATM   17  C   UNL     1       3.651   2.354  -0.324  1.00  0.00     0.210 C 
ENDBRANCH   6  16
BRANCH   1  18
HETATM   18  O   UNL     1       2.263   0.008  -0.134  1.00  0.00    -0.353 OA
HETATM   19  C   UNL     1       0.912  -0.438  -0.170  1.00  0.00     0.210 C 
ENDBRANCH   1  18
TORSDOF 5
