REMARK  4 active torsions:
REMARK  status: ('A' for Active; 'I' for Inactive)
REMARK    1  A    between atoms: C_2  and  C_3 
REMARK       I    between atoms: C_2  and  N_12 
REMARK    2  A    between atoms: C_3  and  O_4 
REMARK    3  A    between atoms: O_4  and  C_5 
REMARK    4  A    between atoms: N_12  and  O_13 
ROOT
HETATM    1  O   UNL     1       2.037   1.577  -1.698  1.00  0.00    -0.342 OA
ENDROOT
BRANCH   1   2
HETATM    2  C   UNL     1       2.651   0.309  -1.468  1.00  0.00     0.280 C 
BRANCH   2   3
HETATM    3  C   UNL     1       1.977  -0.403  -0.290  1.00  0.00     0.265 C 
HETATM    4  O   UNL     1       2.354  -1.486   0.144  1.00  0.00    -0.269 OA
HETATM    5  N   UNL     1       0.913   0.280   0.241  1.00  0.00    -0.236 N 
HETATM    6  H   UNL     1       0.645   1.207  -0.075  1.00  0.00     0.197 HD
BRANCH   5   7
HETATM    7  O   UNL     1       0.261  -0.254   1.369  1.00  0.00    -0.287 OA
HETATM    8  H   UNL     1       0.845  -0.997   1.625  1.00  0.00     0.244 HD
ENDBRANCH   5   7
ENDBRANCH   2   3
ENDBRANCH   1   2
BRANCH   1   9
HETATM    9  C   UNL     1       2.494   2.325  -2.746  1.00  0.00     0.070 A 
HETATM   10  C   UNL     1       3.558   1.998  -3.588  1.00  0.00     0.037 A 
HETATM   11  C   UNL     1       3.913   2.854  -4.637  1.00  0.00     0.004 A 
HETATM   12  C   UNL     1       3.208   4.039  -4.846  1.00  0.00     0.024 A 
HETATM   13  C   UNL     1       2.152   4.367  -4.001  1.00  0.00     0.036 A 
HETATM   14 CL   UNL     1       1.275   5.826  -4.255  1.00  0.00    -0.084 Cl
HETATM   15  C   UNL     1       1.797   3.519  -2.954  1.00  0.00     0.060 A 
ENDBRANCH   1   9
TORSDOF 4
