REMARK  4 active torsions:
REMARK  status: ('A' for Active; 'I' for Inactive)
REMARK    1  A    between atoms: C_5  and  O_6 
REMARK    2  A    between atoms: O_6  and  C_7 
REMARK    3  A    between atoms: C_7  and  C_8 
REMARK       I    between atoms: C_8  and  N_10 
REMARK    4  A    between atoms: N_10  and  O_11 
ROOT
HETATM    1  O   UNL     1      -3.210  -0.040  -0.002  1.00  0.00    -0.342 OA
ENDROOT
BRANCH   1   2
HETATM    2  C   UNL     1      -1.846   0.065  -0.032  1.00  0.00     0.069 A 
HETATM    3  C   UNL     1      -1.129   1.260  -0.030  1.00  0.00     0.037 A 
HETATM    4  C   UNL     1       0.271   1.237  -0.021  1.00  0.00     0.009 A 
HETATM    5  C   UNL     1       0.965   0.022  -0.013  1.00  0.00    -0.062 A 
HETATM    6  C   UNL     1       2.465  -0.014  -0.011  1.00  0.00     0.048 C 
HETATM    7  C   UNL     1       0.238  -1.173  -0.005  1.00  0.00     0.009 A 
HETATM    8  C   UNL     1      -1.158  -1.148  -0.005  1.00  0.00     0.037 A 
ENDBRANCH   1   2
BRANCH   1   9
HETATM    9  C   UNL     1      -3.932   1.017  -0.630  1.00  0.00     0.280 C 
BRANCH   9  10
HETATM   10  C   UNL     1      -5.430   0.740  -0.588  1.00  0.00     0.265 C 
HETATM   11  O   UNL     1      -6.267   1.502  -1.075  1.00  0.00    -0.269 OA
HETATM   12  N   UNL     1      -5.790  -0.419   0.048  1.00  0.00    -0.236 N 
HETATM   13  H   UNL     1      -5.120  -1.054   0.474  1.00  0.00     0.197 HD
BRANCH  12  14
HETATM   14  O   UNL     1      -7.164  -0.717   0.145  1.00  0.00    -0.287 OA
HETATM   15  H   UNL     1      -7.577   0.051  -0.306  1.00  0.00     0.244 HD
ENDBRANCH  12  14
ENDBRANCH   9  10
ENDBRANCH   1   9
TORSDOF 4
