REMARK  5 active torsions:
REMARK  status: ('A' for Active; 'I' for Inactive)
REMARK    1  A    between atoms: C_2  and  C_3 
REMARK       I    between atoms: C_2  and  N_13 
REMARK    2  A    between atoms: C_3  and  C_4 
REMARK    3  A    between atoms: C_4  and  O_5 
REMARK    4  A    between atoms: O_5  and  C_6 
REMARK    5  A    between atoms: N_13  and  O_14 
ROOT
HETATM    1  C   UNL     1       1.986   2.541  -0.194  1.00  0.00     0.185 C 
ENDROOT
BRANCH   1   2
HETATM    2  C   UNL     1       2.959   1.376  -0.107  1.00  0.00     0.131 C 
BRANCH   2   3
HETATM    3  C   UNL     1       2.213   0.071   0.040  1.00  0.00     0.242 C 
HETATM    4  O   UNL     1       0.988  -0.028   0.080  1.00  0.00    -0.271 OA
HETATM    5  N   UNL     1       3.034  -1.023   0.130  1.00  0.00    -0.237 N 
HETATM    6  H   UNL     1       4.046  -1.007   0.085  1.00  0.00     0.197 HD
BRANCH   5   7
HETATM    7  O   UNL     1       2.410  -2.281   0.263  1.00  0.00    -0.287 OA
HETATM    8  H   UNL     1       1.456  -2.046   0.265  1.00  0.00     0.244 HD
ENDBRANCH   5   7
ENDBRANCH   2   3
ENDBRANCH   1   2
BRANCH   1   9
HETATM    9  O   UNL     1       2.720   3.763  -0.325  1.00  0.00    -0.351 OA
BRANCH   9  10
HETATM   10  C   UNL     1       1.968   4.909  -0.387  1.00  0.00     0.071 A 
HETATM   11  C   UNL     1       0.570   4.963  -0.372  1.00  0.00     0.037 A 
HETATM   12  C   UNL     1      -0.097   6.190  -0.436  1.00  0.00     0.006 A 
HETATM   13  C   UNL     1       0.632   7.373  -0.516  1.00  0.00     0.042 A 
HETATM   14  C   UNL     1       2.020   7.316  -0.534  1.00  0.00     0.119 A 
HETATM   15  F   UNL     1       2.721   8.456  -0.612  1.00  0.00    -0.206 F 
HETATM   16  C   UNL     1       2.694   6.099  -0.472  1.00  0.00     0.079 A 
ENDBRANCH   9  10
ENDBRANCH   1   9
TORSDOF 5
