REMARK  4 active torsions:
REMARK  status: ('A' for Active; 'I' for Inactive)
REMARK    1  A    between atoms: C_2  and  C_3 
REMARK       I    between atoms: C_2  and  N_12 
REMARK    2  A    between atoms: C_3  and  O_4 
REMARK    3  A    between atoms: O_4  and  C_5 
REMARK    4  A    between atoms: N_12  and  O_13 
ROOT
HETATM    1  O   UNL     1       2.173  -1.901   1.601  1.00  0.00    -0.342 OA
ENDROOT
BRANCH   1   2
HETATM    2  C   UNL     1       1.504  -2.344   0.420  1.00  0.00     0.280 C 
BRANCH   2   3
HETATM    3  C   UNL     1       1.658  -1.329  -0.706  1.00  0.00     0.265 C 
HETATM    4  O   UNL     1       1.141  -1.473  -1.813  1.00  0.00    -0.269 OA
HETATM    5  N   UNL     1       2.431  -0.239  -0.397  1.00  0.00    -0.236 N 
HETATM    6  H   UNL     1       2.714  -0.026   0.555  1.00  0.00     0.197 HD
BRANCH   5   7
HETATM    7  O   UNL     1       2.535   0.777  -1.368  1.00  0.00    -0.287 OA
HETATM    8  H   UNL     1       1.999   0.418  -2.107  1.00  0.00     0.244 HD
ENDBRANCH   5   7
ENDBRANCH   2   3
ENDBRANCH   1   2
BRANCH   1   9
HETATM    9  C   UNL     1       2.432  -2.867   2.533  1.00  0.00     0.069 A 
HETATM   10  C   UNL     1       3.491  -2.589   3.403  1.00  0.00     0.040 A 
HETATM   11  C   UNL     1       3.864  -3.517   4.376  1.00  0.00     0.045 A 
HETATM   12  C   UNL     1       3.164  -4.712   4.483  1.00  0.00     0.116 A 
HETATM   13  F   UNL     1       3.525  -5.610   5.408  1.00  0.00    -0.206 F 
HETATM   14  C   UNL     1       2.090  -4.988   3.644  1.00  0.00     0.045 A 
HETATM   15  C   UNL     1       1.716  -4.060   2.670  1.00  0.00     0.040 A 
ENDBRANCH   1   9
TORSDOF 4
