REMARK  4 active torsions:
REMARK  status: ('A' for Active; 'I' for Inactive)
REMARK    1  A    between atoms: C_2  and  C_3 
REMARK       I    between atoms: C_2  and  N_12 
REMARK    2  A    between atoms: C_3  and  O_4 
REMARK    3  A    between atoms: O_4  and  C_5 
REMARK    4  A    between atoms: N_12  and  O_13 
ROOT
HETATM    1  O   UNL     1       1.982   0.279  -2.372  1.00  0.00    -0.342 OA
ENDROOT
BRANCH   1   2
HETATM    2  C   UNL     1       2.495  -0.768  -1.550  1.00  0.00     0.280 C 
BRANCH   2   3
HETATM    3  C   UNL     1       1.792  -0.820  -0.197  1.00  0.00     0.265 C 
HETATM    4  O   UNL     1       2.087  -1.632   0.678  1.00  0.00    -0.269 OA
HETATM    5  N   UNL     1       0.799   0.106  -0.028  1.00  0.00    -0.236 N 
HETATM    6  H   UNL     1       0.571   0.815  -0.719  1.00  0.00     0.197 HD
BRANCH   5   7
HETATM    7  O   UNL     1       0.129   0.133   1.211  1.00  0.00    -0.287 OA
HETATM    8  H   UNL     1       0.579  -0.583   1.710  1.00  0.00     0.244 HD
ENDBRANCH   5   7
ENDBRANCH   2   3
ENDBRANCH   1   2
BRANCH   1   9
HETATM    9  C   UNL     1       2.525   0.400  -3.623  1.00  0.00     0.072 A 
HETATM   10  C   UNL     1       3.567  -0.378  -4.139  1.00  0.00     0.037 A 
HETATM   11  C   UNL     1       4.036  -0.160  -5.439  1.00  0.00     0.006 A 
HETATM   12  C   UNL     1       3.467   0.837  -6.228  1.00  0.00     0.042 A 
HETATM   13  C   UNL     1       2.434   1.608  -5.710  1.00  0.00     0.119 A 
HETATM   14  F   UNL     1       1.884   2.566  -6.467  1.00  0.00    -0.206 F 
HETATM   15  C   UNL     1       1.961   1.399  -4.418  1.00  0.00     0.079 A 
ENDBRANCH   1   9
TORSDOF 4
