REMARK  5 active torsions:
REMARK  status: ('A' for Active; 'I' for Inactive)
REMARK    1  A    between atoms: C_2  and  C_3 
REMARK       I    between atoms: C_2  and  N_14 
REMARK    2  A    between atoms: C_3  and  C_4 
REMARK    3  A    between atoms: C_4  and  O_5 
REMARK    4  A    between atoms: O_5  and  C_6 
REMARK    5  A    between atoms: N_14  and  O_15 
ROOT
HETATM    1  O   UNL     1       2.853   0.140   3.652  1.00  0.00    -0.350 OA
ENDROOT
BRANCH   1   2
HETATM    2  C   UNL     1       2.104   0.058   2.429  1.00  0.00     0.185 C 
BRANCH   2   3
HETATM    3  C   UNL     1       3.068   0.024   1.252  1.00  0.00     0.131 C 
BRANCH   3   4
HETATM    4  C   UNL     1       2.320  -0.065  -0.062  1.00  0.00     0.242 C 
HETATM    5  O   UNL     1       1.083  -0.104  -0.112  1.00  0.00    -0.271 OA
HETATM    6  N   UNL     1       3.070  -0.105  -1.196  1.00  0.00    -0.237 N 
HETATM    7  H   UNL     1       4.082  -0.063  -1.126  1.00  0.00     0.197 HD
BRANCH   6   8
HETATM    8  O   UNL     1       2.546  -0.188  -2.488  1.00  0.00    -0.287 OA
HETATM    9  H   UNL     1       1.573  -0.204  -2.392  1.00  0.00     0.244 HD
ENDBRANCH   6   8
ENDBRANCH   3   4
ENDBRANCH   2   3
ENDBRANCH   1   2
BRANCH   1  10
HETATM   10  C   UNL     1       2.091   0.163   4.793  1.00  0.00     0.074 A 
HETATM   11  C   UNL     1       0.694   0.133   4.810  1.00  0.00     0.079 A 
HETATM   12  C   UNL     1       0.017   0.133   6.021  1.00  0.00     0.121 A 
HETATM   13  F   UNL     1      -1.321   0.088   6.019  1.00  0.00    -0.206 F 
HETATM   14  C   UNL     1       0.698   0.162   7.228  1.00  0.00     0.084 A 
HETATM   15  C   UNL     1       2.085   0.183   7.206  1.00  0.00     0.121 A 
HETATM   16  F   UNL     1       2.758   0.199   8.364  1.00  0.00    -0.206 F 
HETATM   17  C   UNL     1       2.788   0.183   6.003  1.00  0.00     0.079 A 
ENDBRANCH   1  10
TORSDOF 5
