REMARK  5 active torsions:
REMARK  status: ('A' for Active; 'I' for Inactive)
REMARK    1  A    between atoms: C_2  and  C_3 
REMARK       I    between atoms: C_2  and  N_14 
REMARK    2  A    between atoms: C_3  and  O_4 
REMARK    3  A    between atoms: O_4  and  C_5 
REMARK    4  A    between atoms: C_9  and  N_10 
REMARK    5  A    between atoms: N_14  and  O_15 
ROOT
HETATM    1  C   UNL     1       2.514   1.219   3.589  1.00  0.00     0.071 A 
HETATM    2  C   UNL     1       3.609   2.085   3.631  1.00  0.00     0.037 A 
HETATM    3  C   UNL     1       3.985   2.678   4.841  1.00  0.00     0.005 A 
HETATM    4  C   UNL     1       3.275   2.403   6.012  1.00  0.00     0.036 A 
HETATM    5  C   UNL     1       2.193   1.517   5.963  1.00  0.00     0.105 A 
HETATM    6  C   UNL     1       1.819   0.915   4.760  1.00  0.00     0.072 A 
ENDROOT
BRANCH   1   7
HETATM    7  O   UNL     1       2.064   0.580   2.469  1.00  0.00    -0.342 OA
BRANCH   7   8
HETATM    8  C   UNL     1       2.208   1.293   1.242  1.00  0.00     0.280 C 
BRANCH   8   9
HETATM    9  C   UNL     1       1.125   0.844   0.264  1.00  0.00     0.265 C 
HETATM   10  O   UNL     1       1.126   1.153  -0.927  1.00  0.00    -0.269 OA
HETATM   11  N   UNL     1       0.125   0.086   0.825  1.00  0.00    -0.236 N 
HETATM   12  H   UNL     1       0.231  -0.337   1.744  1.00  0.00     0.197 HD
BRANCH  11  13
HETATM   13  O   UNL     1      -0.835  -0.468  -0.045  1.00  0.00    -0.287 OA
HETATM   14  H   UNL     1      -0.514  -0.184  -0.928  1.00  0.00     0.244 HD
ENDBRANCH  11  13
ENDBRANCH   8   9
ENDBRANCH   7   8
ENDBRANCH   1   7
BRANCH   5  15
HETATM   15  N   UNL     1       1.435   1.220   7.186  1.00  0.00    -0.116 N 
HETATM   16  O   UNL     1       1.779   1.792   8.228  1.00  0.00    -0.532 OA
HETATM   17  O   UNL     1       0.494   0.418   7.101  1.00  0.00    -0.532 OA
ENDBRANCH   5  15
TORSDOF 5
