REMARK  5 active torsions:
REMARK  status: ('A' for Active; 'I' for Inactive)
REMARK    1  A    between atoms: O_2  and  C_3 
REMARK    2  A    between atoms: C_6  and  O_7 
REMARK    3  A    between atoms: O_7  and  C_8 
REMARK    4  A    between atoms: C_8  and  C_9 
REMARK       I    between atoms: C_9  and  N_11 
REMARK    5  A    between atoms: N_11  and  O_12 
ROOT
HETATM    1  C   UNL     1       3.022   1.075   0.641  1.00  0.00     0.068 A 
HETATM    2  C   UNL     1       2.576   1.509   1.890  1.00  0.00     0.039 A 
HETATM    3  C   UNL     1       3.325   2.435   2.628  1.00  0.00     0.039 A 
HETATM    4  C   UNL     1       4.524   2.936   2.119  1.00  0.00     0.069 A 
HETATM    5  C   UNL     1       4.953   2.524   0.858  1.00  0.00     0.039 A 
HETATM    6  C   UNL     1       4.212   1.593   0.128  1.00  0.00     0.039 A 
ENDROOT
BRANCH   4   7
HETATM    7  O   UNL     1       5.323   3.857   2.735  1.00  0.00    -0.342 OA
BRANCH   7   8
HETATM    8  C   UNL     1       5.274   3.876   4.160  1.00  0.00     0.280 C 
BRANCH   8   9
HETATM    9  C   UNL     1       6.242   4.910   4.724  1.00  0.00     0.265 C 
HETATM   10  O   UNL     1       6.438   5.059   5.928  1.00  0.00    -0.269 OA
HETATM   11  N   UNL     1       6.865   5.692   3.785  1.00  0.00    -0.236 N 
HETATM   12  H   UNL     1       6.852   5.473   2.792  1.00  0.00     0.197 HD
BRANCH  11  13
HETATM   13  O   UNL     1       7.812   6.629   4.250  1.00  0.00    -0.287 OA
HETATM   14  H   UNL     1       7.749   6.524   5.225  1.00  0.00     0.244 HD
ENDBRANCH  11  13
ENDBRANCH   8   9
ENDBRANCH   7   8
ENDBRANCH   4   7
BRANCH   1  15
HETATM   15  O   UNL     1       2.398   0.168  -0.168  1.00  0.00    -0.356 OA
HETATM   16  C   UNL     1       1.192  -0.407   0.320  1.00  0.00     0.210 C 
ENDBRANCH   1  15
TORSDOF 5
