REMARK  5 active torsions:
REMARK  status: ('A' for Active; 'I' for Inactive)
REMARK    1  A    between atoms: C_2  and  C_3 
REMARK       I    between atoms: C_2  and  N_14 
REMARK    2  A    between atoms: C_3  and  O_4 
REMARK    3  A    between atoms: O_4  and  C_5 
REMARK    4  A    between atoms: C_8  and  N_9 
REMARK    5  A    between atoms: N_14  and  O_15 
ROOT
HETATM    1  C   UNL     1       2.583   0.802  -3.570  1.00  0.00     0.069 A 
HETATM    2  C   UNL     1       3.606  -0.006  -4.076  1.00  0.00     0.039 A 
HETATM    3  C   UNL     1       4.073   0.176  -5.379  1.00  0.00     0.039 A 
HETATM    4  C   UNL     1       3.495   1.165  -6.185  1.00  0.00     0.103 A 
HETATM    5  C   UNL     1       2.445   1.952  -5.697  1.00  0.00     0.039 A 
HETATM    6  C   UNL     1       1.985   1.761  -4.391  1.00  0.00     0.039 A 
ENDROOT
BRANCH   1   7
HETATM    7  O   UNL     1       2.240   0.565  -2.266  1.00  0.00    -0.342 OA
BRANCH   7   8
HETATM    8  C   UNL     1       1.629   1.662  -1.587  1.00  0.00     0.280 C 
BRANCH   8   9
HETATM    9  C   UNL     1       1.686   1.491  -0.075  1.00  0.00     0.265 C 
HETATM   10  O   UNL     1       1.210   2.314   0.707  1.00  0.00    -0.269 OA
HETATM   11  N   UNL     1       2.317   0.355   0.358  1.00  0.00    -0.236 N 
HETATM   12  H   UNL     1       2.581  -0.402  -0.265  1.00  0.00     0.197 HD
BRANCH  11  13
HETATM   13  O   UNL     1       2.326   0.113   1.747  1.00  0.00    -0.287 OA
HETATM   14  H   UNL     1       1.845   0.892   2.102  1.00  0.00     0.244 HD
ENDBRANCH  11  13
ENDBRANCH   8   9
ENDBRANCH   7   8
ENDBRANCH   1   7
BRANCH   4  15
HETATM   15  N   UNL     1       4.000   1.390  -7.545  1.00  0.00    -0.116 N 
HETATM   16  O   UNL     1       4.932   0.675  -7.938  1.00  0.00    -0.532 OA
HETATM   17  O   UNL     1       3.466   2.286  -8.216  1.00  0.00    -0.532 OA
ENDBRANCH   4  15
TORSDOF 5
