REMARK  4 active torsions:
REMARK  status: ('A' for Active; 'I' for Inactive)
REMARK    1  A    between atoms: C_6  and  O_7 
REMARK    2  A    between atoms: O_7  and  C_8 
REMARK    3  A    between atoms: C_8  and  C_9 
REMARK       I    between atoms: C_9  and  N_11 
REMARK    4  A    between atoms: N_11  and  O_12 
ROOT
HETATM    1  O   UNL     1      -1.751  -2.450  -0.001  1.00  0.00    -0.342 OA
ENDROOT
BRANCH   1   2
HETATM    2  C   UNL     1      -1.167  -1.214   0.028  1.00  0.00     0.069 A 
HETATM    3  C   UNL     1      -1.850   0.002   0.027  1.00  0.00     0.037 A 
HETATM    4  C   UNL     1      -1.139   1.203   0.018  1.00  0.00     0.003 A 
HETATM    5  C   UNL     1       0.256   1.197   0.010  1.00  0.00     0.007 A 
HETATM    6  C   UNL     1       0.954  -0.015   0.003  1.00  0.00    -0.059 A 
HETATM    7  C   UNL     1       2.454  -0.043  -0.011  1.00  0.00     0.048 C 
HETATM    8  C   UNL     1       0.231  -1.216   0.002  1.00  0.00     0.043 A 
ENDBRANCH   1   2
BRANCH   1   9
HETATM    9  C   UNL     1      -3.040  -2.546   0.602  1.00  0.00     0.280 C 
BRANCH   9  10
HETATM   10  C   UNL     1      -3.560  -3.980   0.550  1.00  0.00     0.265 C 
HETATM   11  O   UNL     1      -4.650  -4.312   1.018  1.00  0.00    -0.269 OA
HETATM   12  N   UNL     1      -2.733  -4.878  -0.069  1.00  0.00    -0.236 N 
HETATM   13  H   UNL     1      -1.866  -4.614  -0.527  1.00  0.00     0.197 HD
BRANCH  12  14
HETATM   14  O   UNL     1      -3.189  -6.205  -0.198  1.00  0.00    -0.287 OA
HETATM   15  H   UNL     1      -4.069  -6.168   0.237  1.00  0.00     0.244 HD
ENDBRANCH  12  14
ENDBRANCH   9  10
ENDBRANCH   1   9
TORSDOF 4
