REMARK  5 active torsions:
REMARK  status: ('A' for Active; 'I' for Inactive)
REMARK    1  A    between atoms: O_1  and  C_2 
REMARK    2  A    between atoms: C_5  and  C_6 
REMARK    3  A    between atoms: C_6  and  C_7 
REMARK    4  A    between atoms: C_7  and  C_8 
REMARK    5  A    between atoms: C_16  and  O_17 
ROOT
HETATM    1  C   UNL     1       0.558  -0.747   0.066  1.00  0.00     0.098 A 
HETATM    2  C   UNL     1      -0.547  -1.303  -0.568  1.00  0.00     0.040 A 
HETATM    3  C   UNL     1      -1.761  -0.606  -0.590  1.00  0.00     0.010 A 
HETATM    4  C   UNL     1      -1.889   0.645   0.035  1.00  0.00    -0.055 A 
HETATM    5  C   UNL     1      -0.753   1.200   0.650  1.00  0.00     0.046 A 
HETATM    6  C   UNL     1       0.458   0.504   0.669  1.00  0.00     0.099 A 
ENDROOT
BRANCH   4   7
HETATM    7  C   UNL     1      -3.176   1.449   0.006  1.00  0.00     0.043 C 
BRANCH   7   8
HETATM    8  C   UNL     1      -4.469   0.621   0.006  1.00  0.00     0.043 C 
BRANCH   8   9
HETATM    9  C   UNL     1      -5.717   1.473  -0.023  1.00  0.00    -0.056 A 
HETATM   10  C   UNL     1      -6.351   1.867   1.163  1.00  0.00     0.007 A 
HETATM   11  C   UNL     1      -7.526   2.627   1.121  1.00  0.00     0.002 A 
HETATM   12  C   UNL     1      -8.073   3.003  -0.105  1.00  0.00     0.024 A 
HETATM   13  C   UNL     1      -7.441   2.623  -1.287  1.00  0.00     0.034 A 
HETATM   14 CL   UNL     1      -8.117   3.077  -2.803  1.00  0.00    -0.084 Cl
HETATM   15  C   UNL     1      -6.269   1.868  -1.252  1.00  0.00     0.031 A 
ENDBRANCH   8   9
ENDBRANCH   7   8
ENDBRANCH   4   7
BRANCH   6  16
HETATM   16  O   UNL     1       1.558   1.044   1.275  1.00  0.00    -0.358 OA
HETATM   17  H   UNL     1       1.327   1.915   1.631  1.00  0.00     0.217 HD
ENDBRANCH   6  16
BRANCH   1  18
HETATM   18  O   UNL     1       1.749  -1.418   0.096  1.00  0.00    -0.358 OA
HETATM   19  H   UNL     1       1.645  -2.267  -0.359  1.00  0.00     0.217 HD
ENDBRANCH   1  18
TORSDOF 5
