REMARK  4 active torsions:
REMARK  status: ('A' for Active; 'I' for Inactive)
REMARK    1  A    between atoms: C_2  and  C_3 
REMARK       I    between atoms: C_2  and  N_13 
REMARK    2  A    between atoms: C_3  and  O_4 
REMARK    3  A    between atoms: O_4  and  C_5 
REMARK    4  A    between atoms: N_13  and  O_14 
ROOT
HETATM    1  C   UNL     1       2.535  -2.623  -2.483  1.00  0.00     0.091 A 
HETATM    2  C   UNL     1       3.588  -3.504  -2.225  1.00  0.00     0.040 A 
HETATM    3  C   UNL     1       4.109  -4.294  -3.254  1.00  0.00     0.026 A 
HETATM    4  C   UNL     1       3.588  -4.191  -4.543  1.00  0.00     0.035 A 
HETATM    5 CL   UNL     1       4.221  -5.182  -5.798  1.00  0.00    -0.084 Cl
HETATM    6  C   UNL     1       2.564  -3.291  -4.822  1.00  0.00     0.050 A 
HETATM    7  C   UNL     1       2.045  -2.503  -3.793  1.00  0.00     0.069 A 
HETATM    8 CL   UNL     1       0.768  -1.400  -4.170  1.00  0.00    -0.081 Cl
ENDROOT
BRANCH   1   9
HETATM    9  O   UNL     1       1.966  -1.831  -1.519  1.00  0.00    -0.340 OA
BRANCH   9  10
HETATM   10  C   UNL     1       1.915  -2.395  -0.209  1.00  0.00     0.280 C 
BRANCH  10  11
HETATM   11  C   UNL     1       0.749  -1.829   0.592  1.00  0.00     0.265 C 
HETATM   12  O   UNL     1       0.556  -2.111   1.776  1.00  0.00    -0.269 OA
HETATM   13  N   UNL     1      -0.092  -1.003  -0.105  1.00  0.00    -0.236 N 
HETATM   14  H   UNL     1       0.123  -0.643  -1.031  1.00  0.00     0.197 HD
BRANCH  13  15
HETATM   15  O   UNL     1      -1.153  -0.410   0.612  1.00  0.00    -0.287 OA
HETATM   16  H   UNL     1      -1.039  -0.791   1.510  1.00  0.00     0.244 HD
ENDBRANCH  13  15
ENDBRANCH  10  11
ENDBRANCH   9  10
ENDBRANCH   1   9
TORSDOF 4
