REMARK  4 active torsions:
REMARK  status: ('A' for Active; 'I' for Inactive)
REMARK    1  A    between atoms: C_2  and  C_3 
REMARK       I    between atoms: C_2  and  N_13 
REMARK    2  A    between atoms: C_3  and  O_4 
REMARK    3  A    between atoms: O_4  and  C_5 
REMARK    4  A    between atoms: N_13  and  O_14 
ROOT
HETATM    1  C   UNL     1       2.452  -2.646   2.529  1.00  0.00     0.092 A 
HETATM    2  C   UNL     1       3.527  -2.394   3.391  1.00  0.00     0.039 A 
HETATM    3  C   UNL     1       3.888  -3.333   4.359  1.00  0.00     0.005 A 
HETATM    4  C   UNL     1       3.183  -4.529   4.475  1.00  0.00     0.026 A 
HETATM    5  C   UNL     1       2.112  -4.796   3.619  1.00  0.00     0.058 A 
HETATM    6 CL   UNL     1       1.286  -6.302   3.825  1.00  0.00    -0.082 Cl
HETATM    7  C   UNL     1       1.744  -3.860   2.643  1.00  0.00     0.089 A 
HETATM    8 CL   UNL     1       0.416  -4.171   1.564  1.00  0.00    -0.080 Cl
ENDROOT
BRANCH   1   9
HETATM    9  O   UNL     1       2.033  -1.783   1.550  1.00  0.00    -0.340 OA
BRANCH   9  10
HETATM   10  C   UNL     1       2.618  -0.485   1.495  1.00  0.00     0.280 C 
BRANCH  10  11
HETATM   11  C   UNL     1       1.948   0.354   0.412  1.00  0.00     0.265 C 
HETATM   12  O   UNL     1       2.390   1.442   0.042  1.00  0.00    -0.269 OA
HETATM   13  N   UNL     1       0.797  -0.184  -0.108  1.00  0.00    -0.236 N 
HETATM   14  H   UNL     1       0.573  -1.170   0.005  1.00  0.00     0.197 HD
BRANCH  13  15
HETATM   15  O   UNL     1       0.223   0.495  -1.205  1.00  0.00    -0.287 OA
HETATM   16  H   UNL     1       0.833   1.254  -1.330  1.00  0.00     0.244 HD
ENDBRANCH  13  15
ENDBRANCH  10  11
ENDBRANCH   9  10
ENDBRANCH   1   9
TORSDOF 4
