REMARK  4 active torsions:
REMARK  status: ('A' for Active; 'I' for Inactive)
REMARK    1  A    between atoms: C_2  and  C_3 
REMARK       I    between atoms: C_2  and  N_12 
REMARK    2  A    between atoms: C_3  and  O_4 
REMARK    3  A    between atoms: O_4  and  C_5 
REMARK    4  A    between atoms: N_12  and  O_13 
ROOT
HETATM    1  O   UNL     1       2.204  -1.750  -1.628  1.00  0.00    -0.342 OA
ENDROOT
BRANCH   1   2
HETATM    2  C   UNL     1       1.624  -0.513  -2.045  1.00  0.00     0.280 C 
BRANCH   2   3
HETATM    3  C   UNL     1       1.629   0.514  -0.918  1.00  0.00     0.265 C 
HETATM    4  O   UNL     1       1.124   1.630  -1.028  1.00  0.00    -0.269 OA
HETATM    5  N   UNL     1       2.244   0.096   0.233  1.00  0.00    -0.236 N 
HETATM    6  H   UNL     1       2.592  -0.850   0.358  1.00  0.00     0.197 HD
BRANCH   5   7
HETATM    7  O   UNL     1       2.224   0.957   1.347  1.00  0.00    -0.287 OA
HETATM    8  H   UNL     1       1.593   1.655   1.068  1.00  0.00     0.244 HD
ENDBRANCH   5   7
ENDBRANCH   2   3
ENDBRANCH   1   2
BRANCH   1   9
HETATM    9  C   UNL     1       2.596  -2.583  -2.645  1.00  0.00     0.069 A 
HETATM   10  C   UNL     1       3.601  -3.495  -2.319  1.00  0.00     0.038 A 
HETATM   11  C   UNL     1       4.113  -4.358  -3.296  1.00  0.00     0.022 A 
HETATM   12  C   UNL     1       3.605  -4.306  -4.591  1.00  0.00     0.011 A 
HETATM   13 BR   UNL     1       4.323  -5.437  -5.928  1.00  0.00    -0.051 Br
HETATM   14  C   UNL     1       2.578  -3.426  -4.913  1.00  0.00     0.022 A 
HETATM   15  C   UNL     1       2.065  -2.568  -3.934  1.00  0.00     0.038 A 
ENDBRANCH   1   9
TORSDOF 4
