REMARK  6 active torsions:
REMARK  status: ('A' for Active; 'I' for Inactive)
REMARK    1  A    between atoms: C_2  and  C_3 
REMARK       I    between atoms: C_2  and  N_15 
REMARK    2  A    between atoms: C_3  and  C_4 
REMARK    3  A    between atoms: C_4  and  N_5 
REMARK    4  A    between atoms: N_5  and  C_6 
REMARK    5  A    between atoms: C_9  and  N_10 
REMARK    6  A    between atoms: N_15  and  O_16 
ROOT
HETATM    1  N   UNL     1       2.708  -2.515   2.888  1.00  0.00    -0.293 NA
HETATM    2  H   UNL     1       3.654  -2.797   2.627  1.00  0.00     0.127 HD
ENDROOT
BRANCH   1   3
HETATM    3  C   UNL     1       2.028  -1.816   1.794  1.00  0.00     0.101 C 
BRANCH   3   4
HETATM    4  C   UNL     1       2.567  -0.393   1.717  1.00  0.00     0.119 C 
BRANCH   4   5
HETATM    5  C   UNL     1       1.878   0.394   0.631  1.00  0.00     0.242 C 
HETATM    6  O   UNL     1       1.018  -0.061  -0.119  1.00  0.00    -0.271 OA
HETATM    7  N   UNL     1       2.315   1.692   0.538  1.00  0.00    -0.237 N 
HETATM    8  H   UNL     1       2.909   2.157   1.217  1.00  0.00     0.197 HD
BRANCH   7   9
HETATM    9  O   UNL     1       1.672   2.507  -0.419  1.00  0.00    -0.287 OA
HETATM   10  H   UNL     1       1.030   1.887  -0.830  1.00  0.00     0.244 HD
ENDBRANCH   7   9
ENDBRANCH   4   5
ENDBRANCH   3   4
ENDBRANCH   1   3
BRANCH   1  11
HETATM   11  C   UNL     1       2.060  -3.591   3.505  1.00  0.00     0.008 A 
HETATM   12  C   UNL     1       1.093  -4.388   2.880  1.00  0.00     0.026 A 
HETATM   13  C   UNL     1       0.495  -5.458   3.558  1.00  0.00     0.038 A 
HETATM   14  C   UNL     1       0.880  -5.745   4.872  1.00  0.00     0.102 A 
HETATM   15  C   UNL     1       1.876  -4.990   5.497  1.00  0.00     0.038 A 
HETATM   16  C   UNL     1       2.468  -3.932   4.803  1.00  0.00     0.026 A 
BRANCH  14  17
HETATM   17  N   UNL     1       0.236  -6.843   5.599  1.00  0.00    -0.116 N 
HETATM   18  O   UNL     1      -0.639  -7.491   5.008  1.00  0.00    -0.532 OA
HETATM   19  O   UNL     1       0.597  -7.057   6.766  1.00  0.00    -0.532 OA
ENDBRANCH  14  17
ENDBRANCH   1  11
TORSDOF 6
