REMARK  5 active torsions:
REMARK  status: ('A' for Active; 'I' for Inactive)
REMARK    1  A    between atoms: C_2  and  C_3 
REMARK       I    between atoms: C_2  and  N_14 
REMARK    2  A    between atoms: C_3  and  C_4 
REMARK    3  A    between atoms: C_4  and  N_5 
REMARK    4  A    between atoms: N_5  and  C_6 
REMARK    5  A    between atoms: N_14  and  O_15 
ROOT
HETATM    1  N   UNL     1       2.762  -2.793   2.333  1.00  0.00    -0.388 N 
HETATM    2  H   UNL     1       3.637  -2.490   2.762  1.00  0.00     0.159 HD
ENDROOT
BRANCH   1   3
HETATM    3  C   UNL     1       2.094  -1.773   1.523  1.00  0.00     0.129 C 
BRANCH   3   4
HETATM    4  C   UNL     1       1.840  -0.508   2.334  1.00  0.00     0.124 C 
BRANCH   4   5
HETATM    5  C   UNL     1       1.095   0.523   1.519  1.00  0.00     0.242 C 
HETATM    6  O   UNL     1       0.729   0.361   0.356  1.00  0.00    -0.271 OA
HETATM    7  N   UNL     1       0.851   1.686   2.203  1.00  0.00    -0.237 N 
HETATM    8  H   UNL     1       1.133   1.878   3.158  1.00  0.00     0.197 HD
BRANCH   7   9
HETATM    9  O   UNL     1       0.159   2.706   1.516  1.00  0.00    -0.287 OA
HETATM   10  H   UNL     1       0.006   2.304   0.634  1.00  0.00     0.244 HD
ENDBRANCH   7   9
ENDBRANCH   4   5
ENDBRANCH   3   4
ENDBRANCH   1   3
BRANCH   1  11
HETATM   11  C   UNL     1       2.054  -3.702   3.132  1.00  0.00     0.051 A 
HETATM   12  C   UNL     1       0.790  -4.179   2.751  1.00  0.00     0.031 A 
HETATM   13  C   UNL     1       0.114  -5.147   3.499  1.00  0.00     0.004 A 
HETATM   14  C   UNL     1       0.698  -5.675   4.645  1.00  0.00     0.026 A 
HETATM   15  C   UNL     1       1.960  -5.235   5.047  1.00  0.00     0.058 A 
HETATM   16 CL   UNL     1       2.624  -5.945   6.478  1.00  0.00    -0.082 Cl
HETATM   17  C   UNL     1       2.640  -4.260   4.297  1.00  0.00     0.082 A 
HETATM   18 CL   UNL     1       4.207  -3.688   4.798  1.00  0.00    -0.080 Cl
ENDBRANCH   1  11
TORSDOF 5
