REMARK  6 active torsions:
REMARK  status: ('A' for Active; 'I' for Inactive)
REMARK    1  A    between atoms: O_2  and  C_3 
REMARK    2  A    between atoms: C_5  and  N_6 
REMARK    3  A    between atoms: N_6  and  C_7 
REMARK    4  A    between atoms: C_7  and  C_8 
REMARK       I    between atoms: C_8  and  N_10 
REMARK    5  A    between atoms: N_10  and  O_11 
REMARK    6  A    between atoms: C_13  and  O_14 
ROOT
HETATM    1  C   UNL     1       3.042   0.855   0.953  1.00  0.00     0.072 A 
HETATM    2  C   UNL     1       2.545   0.953   2.256  1.00  0.00     0.060 A 
HETATM    3  C   UNL     1       3.312   1.534   3.279  1.00  0.00     0.013 A 
HETATM    4  C   UNL     1       4.553   2.097   2.944  1.00  0.00     0.060 A 
HETATM    5  C   UNL     1       5.061   2.007   1.646  1.00  0.00     0.072 A 
HETATM    6  C   UNL     1       4.301   1.381   0.661  1.00  0.00     0.073 A 
ENDROOT
BRANCH   3   7
HETATM    7  N   UNL     1       2.726   1.652   4.562  1.00  0.00    -0.284 NA
HETATM    8  H   UNL     1       2.128   2.483   4.545  1.00  0.00     0.128 HD
BRANCH   7   9
HETATM    9  C   UNL     1       3.668   1.734   5.699  1.00  0.00     0.197 C 
BRANCH   9  10
HETATM   10  C   UNL     1       2.919   1.855   7.020  1.00  0.00     0.254 C 
HETATM   11  O   UNL     1       3.114   2.764   7.828  1.00  0.00    -0.270 OA
HETATM   12  N   UNL     1       2.014   0.849   7.256  1.00  0.00    -0.236 N 
HETATM   13  H   UNL     1       1.592   0.357   6.473  1.00  0.00     0.197 HD
BRANCH  12  14
HETATM   14  O   UNL     1       1.217   1.023   8.416  1.00  0.00    -0.287 OA
HETATM   15  H   UNL     1       1.589   1.845   8.809  1.00  0.00     0.244 HD
ENDBRANCH  12  14
ENDBRANCH   9  10
ENDBRANCH   7   9
ENDBRANCH   3   7
BRANCH   1  16
HETATM   16  O   UNL     1       2.409   0.277  -0.114  1.00  0.00    -0.356 OA
HETATM   17  C   UNL     1       1.146  -0.326   0.129  1.00  0.00     0.210 C 
ENDBRANCH   1  16
BRANCH   5  18
HETATM   18  O   UNL     1       6.270   2.489   1.224  1.00  0.00    -0.356 OA
HETATM   19  C   UNL     1       7.091   3.125   2.197  1.00  0.00     0.210 C 
ENDBRANCH   5  18
TORSDOF 6
