REMARK  4 active torsions:
REMARK  status: ('A' for Active; 'I' for Inactive)
REMARK    1  A    between atoms: C_2  and  C_3 
REMARK       I    between atoms: C_2  and  N_12 
REMARK    2  A    between atoms: C_3  and  N_4 
REMARK    3  A    between atoms: N_4  and  C_5 
REMARK    4  A    between atoms: N_12  and  O_13 
ROOT
HETATM    1  N   UNL     1       2.085  -1.541   1.778  1.00  0.00    -0.283 NA
HETATM    2  H   UNL     1       1.234  -1.968   1.400  1.00  0.00     0.128 HD
ENDROOT
BRANCH   1   3
HETATM    3  C   UNL     1       2.918  -0.957   0.708  1.00  0.00     0.197 C 
BRANCH   3   4
HETATM    4  C   UNL     1       2.144   0.054  -0.138  1.00  0.00     0.254 C 
HETATM    5  O   UNL     1       2.508   0.414  -1.258  1.00  0.00    -0.270 OA
HETATM    6  N   UNL     1       1.046   0.600   0.482  1.00  0.00    -0.236 N 
HETATM    7  H   UNL     1       0.904   0.499   1.485  1.00  0.00     0.197 HD
BRANCH   6   8
HETATM    8  O   UNL     1       0.431   1.691  -0.171  1.00  0.00    -0.287 OA
HETATM    9  H   UNL     1       1.004   1.818  -0.959  1.00  0.00     0.244 HD
ENDBRANCH   6   8
ENDBRANCH   3   4
ENDBRANCH   1   3
BRANCH   1  10
HETATM   10  C   UNL     1       2.710  -2.471   2.642  1.00  0.00     0.026 A 
HETATM   11  C   UNL     1       4.054  -2.345   3.027  1.00  0.00     0.025 A 
HETATM   12  C   UNL     1       4.641  -3.233   3.936  1.00  0.00     0.002 A 
HETATM   13  C   UNL     1       3.887  -4.250   4.511  1.00  0.00     0.001 A 
HETATM   14  C   UNL     1       2.539  -4.374   4.183  1.00  0.00     0.021 A 
HETATM   15  C   UNL     1       1.957  -3.487   3.271  1.00  0.00     0.032 A 
HETATM   16 BR   UNL     1       0.109  -3.718   2.876  1.00  0.00    -0.049 Br
ENDBRANCH   1  10
TORSDOF 4
