REMARK  4 active torsions:
REMARK  status: ('A' for Active; 'I' for Inactive)
REMARK    1  A    between atoms: C_2  and  C_3 
REMARK       I    between atoms: C_2  and  N_12 
REMARK    2  A    between atoms: C_3  and  N_4 
REMARK    3  A    between atoms: N_4  and  C_5 
REMARK    4  A    between atoms: N_12  and  O_13 
ROOT
HETATM    1  N   UNL     1       2.019   2.296  -0.707  1.00  0.00    -0.284 NA
HETATM    2  H   UNL     1       1.321   2.475   0.019  1.00  0.00     0.128 HD
ENDROOT
BRANCH   1   3
HETATM    3  C   UNL     1       2.926   1.210  -0.271  1.00  0.00     0.197 C 
BRANCH   3   4
HETATM    4  C   UNL     1       2.147  -0.075  -0.000  1.00  0.00     0.254 C 
HETATM    5  O   UNL     1       2.464  -0.891   0.865  1.00  0.00    -0.270 OA
HETATM    6  N   UNL     1       1.066  -0.267  -0.825  1.00  0.00    -0.236 N 
HETATM    7  H   UNL     1       0.665   0.517  -1.335  1.00  0.00     0.197 HD
BRANCH   6   8
HETATM    8  O   UNL     1       0.219  -1.351  -0.500  1.00  0.00    -0.287 OA
HETATM    9  H   UNL     1       0.679  -1.759   0.267  1.00  0.00     0.244 HD
ENDBRANCH   6   8
ENDBRANCH   3   4
ENDBRANCH   1   3
BRANCH   1  10
HETATM   10  C   UNL     1       2.619   3.534  -1.014  1.00  0.00     0.008 A 
HETATM   11  C   UNL     1       1.916   4.405  -1.858  1.00  0.00     0.025 A 
HETATM   12  C   UNL     1       2.395   5.690  -2.137  1.00  0.00     0.021 A 
HETATM   13  C   UNL     1       3.572   6.129  -1.540  1.00  0.00     0.011 A 
HETATM   14 BR   UNL     1       4.225   7.865  -1.900  1.00  0.00    -0.051 Br
HETATM   15  C   UNL     1       4.264   5.298  -0.666  1.00  0.00     0.021 A 
HETATM   16  C   UNL     1       3.783   4.011  -0.399  1.00  0.00     0.025 A 
ENDBRANCH   1  10
TORSDOF 4
