REMARK  4 active torsions:
REMARK  status: ('A' for Active; 'I' for Inactive)
REMARK    1  A    between atoms: C_7  and  N_8 
REMARK    2  A    between atoms: N_8  and  C_9 
REMARK    3  A    between atoms: C_9  and  C_10 
REMARK       I    between atoms: C_10  and  N_12 
REMARK    4  A    between atoms: N_12  and  O_13 
ROOT
HETATM    1  N   UNL     1       0.034  -3.186   0.111  1.00  0.00    -0.381 N 
HETATM    2  H   UNL     1      -0.871  -3.640   0.229  1.00  0.00     0.160 HD
ENDROOT
BRANCH   1   3
HETATM    3  C   UNL     1       0.051  -1.802   0.033  1.00  0.00     0.029 A 
HETATM    4  C   UNL     1      -1.161  -1.099   0.018  1.00  0.00     0.036 A 
HETATM    5  C   UNL     1      -1.202   0.304  -0.008  1.00  0.00    -0.059 A 
HETATM    6  C   UNL     1      -0.002   1.021  -0.016  1.00  0.00     0.013 A 
HETATM    7  C   UNL     1      -2.524   1.016  -0.011  1.00  0.00     0.048 C 
HETATM    8  C   UNL     1       1.220   0.342  -0.015  1.00  0.00    -0.059 A 
HETATM    9  C   UNL     1       2.518   1.100   0.003  1.00  0.00     0.048 C 
HETATM   10  C   UNL     1       1.236  -1.058  -0.001  1.00  0.00     0.036 A 
ENDBRANCH   1   3
BRANCH   1  11
HETATM   11  C   UNL     1       1.061  -4.020  -0.503  1.00  0.00     0.224 C 
BRANCH  11  12
HETATM   12  C   UNL     1       0.488  -5.384  -0.904  1.00  0.00     0.258 C 
HETATM   13  O   UNL     1      -0.683  -5.728  -0.729  1.00  0.00    -0.270 OA
HETATM   14  N   UNL     1       1.410  -6.221  -1.493  1.00  0.00    -0.236 N 
HETATM   15  H   UNL     1       2.384  -5.998  -1.674  1.00  0.00     0.197 HD
BRANCH  14  16
HETATM   16  O   UNL     1       0.955  -7.495  -1.902  1.00  0.00    -0.287 OA
HETATM   17  H   UNL     1       0.007  -7.473  -1.644  1.00  0.00     0.244 HD
ENDBRANCH  14  16
ENDBRANCH  11  12
ENDBRANCH   1  11
TORSDOF 4
