REMARK  6 active torsions:
REMARK  status: ('A' for Active; 'I' for Inactive)
REMARK    1  A    between atoms: O_1  and  C_2 
REMARK    2  A    between atoms: C_5  and  C_6 
REMARK    3  A    between atoms: C_6  and  C_7 
REMARK    4  A    between atoms: C_7  and  C_8 
REMARK    5  A    between atoms: C_15  and  O_16 
REMARK    6  A    between atoms: C_17  and  O_18 
ROOT
HETATM    1  C   UNL     1       1.094   0.380   0.356  1.00  0.00     0.101 A 
HETATM    2  C   UNL     1       0.426  -0.086   1.482  1.00  0.00     0.040 A 
HETATM    3  C   UNL     1      -0.710  -0.890   1.332  1.00  0.00     0.013 A 
HETATM    4  C   UNL     1      -1.197  -1.253   0.059  1.00  0.00    -0.022 A 
HETATM    5  C   UNL     1      -0.515  -0.760  -1.060  1.00  0.00     0.107 A 
HETATM    6  C   UNL     1       0.621   0.048  -0.908  1.00  0.00     0.133 A 
ENDROOT
BRANCH   4   7
HETATM    7  C   UNL     1      -2.421  -2.139  -0.008  1.00  0.00     0.046 C 
BRANCH   7   8
HETATM    8  C   UNL     1      -3.736  -1.345   0.014  1.00  0.00     0.043 C 
BRANCH   8   9
HETATM    9  C   UNL     1      -5.024  -2.150   0.037  1.00  0.00    -0.058 A 
HETATM   10  C   UNL     1      -5.069  -3.552   0.069  1.00  0.00     0.010 A 
HETATM   11  C   UNL     1      -6.295  -4.227   0.097  1.00  0.00     0.043 A 
HETATM   12  C   UNL     1      -7.481  -3.506   0.095  1.00  0.00     0.116 A 
HETATM   13  F   UNL     1      -8.652  -4.155   0.122  1.00  0.00    -0.206 F 
HETATM   14  C   UNL     1      -7.466  -2.118   0.068  1.00  0.00     0.043 A 
HETATM   15  C   UNL     1      -6.242  -1.444   0.040  1.00  0.00     0.010 A 
ENDBRANCH   8   9
ENDBRANCH   7   8
ENDBRANCH   4   7
BRANCH   5  16
HETATM   16  O   UNL     1      -0.883  -1.024  -2.354  1.00  0.00    -0.357 OA
HETATM   17  H   UNL     1      -1.621  -1.652  -2.361  1.00  0.00     0.217 HD
ENDBRANCH   5  16
BRANCH   6  18
HETATM   18  O   UNL     1       1.267   0.502  -2.029  1.00  0.00    -0.356 OA
HETATM   19  H   UNL     1       0.752   0.139  -2.774  1.00  0.00     0.218 HD
ENDBRANCH   6  18
BRANCH   1  20
HETATM   20  O   UNL     1       2.209   1.157   0.481  1.00  0.00    -0.358 OA
HETATM   21  H   UNL     1       2.407   1.283   1.422  1.00  0.00     0.217 HD
ENDBRANCH   1  20
TORSDOF 6
