REMARK  4 active torsions:
REMARK  status: ('A' for Active; 'I' for Inactive)
REMARK    1  A    between atoms: C_2  and  C_3 
REMARK       I    between atoms: C_2  and  N_13 
REMARK    2  A    between atoms: C_3  and  N_4 
REMARK    3  A    between atoms: N_4  and  C_5 
REMARK    4  A    between atoms: N_13  and  O_14 
ROOT
HETATM    1  N   UNL     1       1.938   0.290   2.418  1.00  0.00    -0.284 NA
HETATM    2  H   UNL     1       1.148  -0.351   2.331  1.00  0.00     0.128 HD
ENDROOT
BRANCH   1   3
HETATM    3  C   UNL     1       2.874   0.134   1.279  1.00  0.00     0.197 C 
BRANCH   3   4
HETATM    4  C   UNL     1       2.115   0.117  -0.058  1.00  0.00     0.254 C 
HETATM    5  O   UNL     1       2.524  -0.458  -1.064  1.00  0.00    -0.270 OA
HETATM    6  N   UNL     1       0.954   0.846  -0.034  1.00  0.00    -0.236 N 
HETATM    7  H   UNL     1       0.661   1.387   0.775  1.00  0.00     0.197 HD
BRANCH   6   8
HETATM    8  O   UNL     1       0.194   0.929  -1.216  1.00  0.00    -0.287 OA
HETATM    9  H   UNL     1       0.712   0.382  -1.844  1.00  0.00     0.244 HD
ENDBRANCH   6   8
ENDBRANCH   3   4
ENDBRANCH   1   3
BRANCH   1  10
HETATM   10  C   UNL     1       2.483   0.237   3.715  1.00  0.00     0.011 A 
HETATM   11  C   UNL     1       3.726   0.791   4.042  1.00  0.00     0.047 A 
HETATM   12  C   UNL     1       4.180   0.807   5.366  1.00  0.00     0.037 A 
HETATM   13 CL   UNL     1       5.713   1.503   5.729  1.00  0.00    -0.084 Cl
HETATM   14  C   UNL     1       3.404   0.285   6.394  1.00  0.00     0.047 A 
HETATM   15  C   UNL     1       2.160  -0.251   6.084  1.00  0.00     0.037 A 
HETATM   16 CL   UNL     1       1.180  -0.902   7.340  1.00  0.00    -0.084 Cl
HETATM   17  C   UNL     1       1.694  -0.260   4.764  1.00  0.00     0.047 A 
ENDBRANCH   1  10
TORSDOF 4
