REMARK  6 active torsions:
REMARK  status: ('A' for Active; 'I' for Inactive)
REMARK    1  A    between atoms: O_2  and  C_3 
REMARK    2  A    between atoms: C_8  and  N_9 
REMARK    3  A    between atoms: N_9  and  C_10 
REMARK    4  A    between atoms: C_10  and  C_11 
REMARK    5  A    between atoms: C_11  and  C_12 
REMARK       I    between atoms: C_12  and  N_14 
REMARK    6  A    between atoms: N_14  and  O_15 
ROOT
HETATM    1  N   UNL     1       4.653   0.276   1.728  1.00  0.00    -0.290 NA
HETATM    2  H   UNL     1       4.983   0.152   2.682  1.00  0.00     0.127 HD
ENDROOT
BRANCH   1   3
HETATM    3  C   UNL     1       4.221  -0.968   1.206  1.00  0.00     0.042 A 
HETATM    4  C   UNL     1       3.125  -1.183   0.332  1.00  0.00     0.089 A 
HETATM    5  C   UNL     1       2.844  -2.474  -0.142  1.00  0.00     0.038 A 
HETATM    6  C   UNL     1       3.645  -3.558   0.213  1.00  0.00     0.003 A 
HETATM    7  C   UNL     1       4.745  -3.360   1.036  1.00  0.00     0.002 A 
HETATM    8  C   UNL     1       5.030  -2.080   1.518  1.00  0.00     0.026 A 
BRANCH   4   9
HETATM    9  O   UNL     1       2.384  -0.098  -0.062  1.00  0.00    -0.354 OA
HETATM   10  C   UNL     1       1.041  -0.317  -0.465  1.00  0.00     0.210 C 
ENDBRANCH   4   9
ENDBRANCH   1   3
BRANCH   1  11
HETATM   11  C   UNL     1       3.807   1.456   1.551  1.00  0.00     0.102 C 
BRANCH  11  12
HETATM   12  C   UNL     1       4.394   2.677   2.246  1.00  0.00     0.119 C 
BRANCH  12  13
HETATM   13  C   UNL     1       3.490   3.865   2.013  1.00  0.00     0.242 C 
HETATM   14  O   UNL     1       2.445   3.835   1.362  1.00  0.00    -0.271 OA
HETATM   15  N   UNL     1       3.917   5.025   2.614  1.00  0.00    -0.237 N 
HETATM   16  H   UNL     1       4.873   5.184   2.911  1.00  0.00     0.197 HD
BRANCH  15  17
HETATM   17  O   UNL     1       3.146   6.174   2.313  1.00  0.00    -0.287 OA
HETATM   18  H   UNL     1       2.441   5.809   1.733  1.00  0.00     0.244 HD
ENDBRANCH  15  17
ENDBRANCH  12  13
ENDBRANCH  11  12
ENDBRANCH   1  11
TORSDOF 6
