REMARK  6 active torsions:
REMARK  status: ('A' for Active; 'I' for Inactive)
REMARK    1  A    between atoms: C_2  and  C_3 
REMARK       I    between atoms: C_2  and  N_15 
REMARK    2  A    between atoms: C_3  and  C_4 
REMARK    3  A    between atoms: C_4  and  N_5 
REMARK    4  A    between atoms: N_5  and  C_6 
REMARK    5  A    between atoms: C_10  and  N_11 
REMARK    6  A    between atoms: N_15  and  O_16 
ROOT
HETATM    1  N   UNL     1       2.815  -1.091   3.592  1.00  0.00    -0.389 N 
HETATM    2  H   UNL     1       3.796  -1.352   3.501  1.00  0.00     0.159 HD
ENDROOT
BRANCH   1   3
HETATM    3  C   UNL     1       2.123  -0.858   2.318  1.00  0.00     0.129 C 
BRANCH   3   4
HETATM    4  C   UNL     1       3.032  -0.142   1.319  1.00  0.00     0.124 C 
BRANCH   4   5
HETATM    5  C   UNL     1       2.311   0.122   0.009  1.00  0.00     0.242 C 
HETATM    6  O   UNL     1       1.147  -0.201  -0.218  1.00  0.00    -0.271 OA
HETATM    7  N   UNL     1       3.084   0.758  -0.931  1.00  0.00    -0.237 N 
HETATM    8  H   UNL     1       4.034   1.089  -0.778  1.00  0.00     0.197 HD
BRANCH   7   9
HETATM    9  O   UNL     1       2.501   1.056  -2.181  1.00  0.00    -0.287 OA
HETATM   10  H   UNL     1       1.591   0.691  -2.092  1.00  0.00     0.244 HD
ENDBRANCH   7   9
ENDBRANCH   4   5
ENDBRANCH   3   4
ENDBRANCH   1   3
BRANCH   1  11
HETATM   11  C   UNL     1       2.186  -1.808   4.619  1.00  0.00     0.030 A 
HETATM   12  C   UNL     1       0.844  -2.214   4.581  1.00  0.00     0.029 A 
HETATM   13  C   UNL     1       0.242  -2.874   5.662  1.00  0.00     0.005 A 
HETATM   14  C   UNL     1       0.971  -3.135   6.817  1.00  0.00     0.036 A 
HETATM   15  C   UNL     1       2.306  -2.728   6.879  1.00  0.00     0.105 A 
HETATM   16  C   UNL     1       2.901  -2.045   5.803  1.00  0.00     0.065 A 
BRANCH  15  17
HETATM   17  N   UNL     1       3.106  -3.057   8.065  1.00  0.00    -0.116 N 
HETATM   18  O   UNL     1       2.567  -3.730   8.957  1.00  0.00    -0.532 OA
HETATM   19  O   UNL     1       4.282  -2.665   8.098  1.00  0.00    -0.532 OA
ENDBRANCH  15  17
ENDBRANCH   1  11
TORSDOF 6
