REMARK  4 active torsions:
REMARK  status: ('A' for Active; 'I' for Inactive)
REMARK    1  A    between atoms: C_2  and  C_3 
REMARK       I    between atoms: C_2  and  N_12 
REMARK    2  A    between atoms: C_3  and  N_4 
REMARK    3  A    between atoms: N_4  and  C_5 
REMARK    4  A    between atoms: N_12  and  O_13 
ROOT
HETATM    1  N   UNL     1       1.990   1.975   1.487  1.00  0.00    -0.284 NA
HETATM    2  H   UNL     1       1.183   1.490   1.883  1.00  0.00     0.128 HD
ENDROOT
BRANCH   1   3
HETATM    3  C   UNL     1       2.899   1.017   0.820  1.00  0.00     0.197 C 
BRANCH   3   4
HETATM    4  C   UNL     1       2.132   0.156  -0.181  1.00  0.00     0.254 C 
HETATM    5  O   UNL     1       2.365  -1.036  -0.377  1.00  0.00    -0.270 OA
HETATM    6  N   UNL     1       1.181   0.846  -0.894  1.00  0.00    -0.236 N 
HETATM    7  H   UNL     1       0.828   1.740  -0.560  1.00  0.00     0.197 HD
BRANCH   6   8
HETATM    8  O   UNL     1       0.352   0.080  -1.743  1.00  0.00    -0.287 OA
HETATM    9  H   UNL     1       0.713  -0.827  -1.635  1.00  0.00     0.244 HD
ENDBRANCH   6   8
ENDBRANCH   3   4
ENDBRANCH   1   3
BRANCH   1  10
HETATM   10  C   UNL     1       2.559   2.817   2.462  1.00  0.00     0.010 A 
HETATM   11  C   UNL     1       3.871   3.303   2.387  1.00  0.00     0.023 A 
HETATM   12  C   UNL     1       4.376   4.181   3.353  1.00  0.00     0.003 A 
HETATM   13  C   UNL     1       3.563   4.616   4.396  1.00  0.00     0.024 A 
HETATM   14  C   UNL     1       2.243   4.185   4.453  1.00  0.00     0.035 A 
HETATM   15 CL   UNL     1       1.222   4.735   5.725  1.00  0.00    -0.084 Cl
HETATM   16  C   UNL     1       1.738   3.310   3.487  1.00  0.00     0.047 A 
ENDBRANCH   1  10
TORSDOF 4
