REMARK  4 active torsions:
REMARK  status: ('A' for Active; 'I' for Inactive)
REMARK    1  A    between atoms: C_2  and  C_3 
REMARK       I    between atoms: C_2  and  N_13 
REMARK    2  A    between atoms: C_3  and  N_4 
REMARK    3  A    between atoms: N_4  and  C_5 
REMARK    4  A    between atoms: N_13  and  O_14 
ROOT
HETATM    1  N   UNL     1       1.980  -0.932  -2.185  1.00  0.00    -0.283 NA
HETATM    2  H   UNL     1       1.201  -0.273  -2.306  1.00  0.00     0.128 HD
ENDROOT
BRANCH   1   3
HETATM    3  C   UNL     1       2.918  -0.477  -1.141  1.00  0.00     0.197 C 
BRANCH   3   4
HETATM    4  C   UNL     1       2.169  -0.169   0.156  1.00  0.00     0.254 C 
HETATM    5  O   UNL     1       2.490   0.731   0.932  1.00  0.00    -0.270 OA
HETATM    6  N   UNL     1       1.123  -1.022   0.410  1.00  0.00    -0.236 N 
HETATM    7  H   UNL     1       0.740  -1.621  -0.319  1.00  0.00     0.197 HD
BRANCH   6   8
HETATM    8  O   UNL     1       0.305  -0.724   1.522  1.00  0.00    -0.287 OA
HETATM    9  H   UNL     1       0.705   0.103   1.868  1.00  0.00     0.244 HD
ENDBRANCH   6   8
ENDBRANCH   3   4
ENDBRANCH   1   3
BRANCH   1  10
HETATM   10  C   UNL     1       2.488  -1.263  -3.459  1.00  0.00     0.032 A 
HETATM   11  C   UNL     1       3.763  -1.823  -3.634  1.00  0.00     0.049 A 
HETATM   12  C   UNL     1       4.199  -2.234  -4.901  1.00  0.00     0.035 A 
HETATM   13 CL   UNL     1       5.779  -2.895  -5.080  1.00  0.00    -0.084 Cl
HETATM   14  C   UNL     1       3.371  -2.121  -6.013  1.00  0.00     0.026 A 
HETATM   15  C   UNL     1       2.090  -1.599  -5.860  1.00  0.00     0.027 A 
HETATM   16  C   UNL     1       1.652  -1.188  -4.599  1.00  0.00     0.055 A 
HETATM   17 CL   UNL     1       0.050  -0.543  -4.465  1.00  0.00    -0.082 Cl
ENDBRANCH   1  10
TORSDOF 4
