REMARK  5 active torsions:
REMARK  status: ('A' for Active; 'I' for Inactive)
REMARK    1  A    between atoms: C_2  and  C_3 
REMARK       I    between atoms: C_2  and  N_12 
REMARK    2  A    between atoms: C_3  and  C_4 
REMARK    3  A    between atoms: C_4  and  N_5 
REMARK    4  A    between atoms: N_5  and  C_6 
REMARK    5  A    between atoms: N_12  and  O_13 
ROOT
HETATM    1  C   UNL     1       2.039  -0.013   2.362  1.00  0.00     0.129 C 
ENDROOT
BRANCH   1   2
HETATM    2  C   UNL     1       2.958   0.311   1.191  1.00  0.00     0.124 C 
BRANCH   2   3
HETATM    3  C   UNL     1       2.261   0.084  -0.129  1.00  0.00     0.242 C 
HETATM    4  O   UNL     1       1.089  -0.261  -0.253  1.00  0.00    -0.271 OA
HETATM    5  N   UNL     1       3.076   0.295  -1.218  1.00  0.00    -0.237 N 
HETATM    6  H   UNL     1       3.986   0.742  -1.180  1.00  0.00     0.197 HD
BRANCH   5   7
HETATM    7  O   UNL     1       2.471   0.177  -2.489  1.00  0.00    -0.287 OA
HETATM    8  H   UNL     1       1.544  -0.056  -2.262  1.00  0.00     0.244 HD
ENDBRANCH   5   7
ENDBRANCH   2   3
ENDBRANCH   1   2
BRANCH   1   9
HETATM    9  N   UNL     1       2.726   0.269   3.623  1.00  0.00    -0.389 N 
HETATM   10  H   UNL     1       3.702  -0.016   3.647  1.00  0.00     0.159 HD
BRANCH   9  11
HETATM   11  C   UNL     1       2.098  -0.002   4.843  1.00  0.00     0.027 A 
HETATM   12  C   UNL     1       0.764  -0.407   4.968  1.00  0.00     0.029 A 
HETATM   13  C   UNL     1       0.179  -0.597   6.226  1.00  0.00     0.002 A 
HETATM   14  C   UNL     1       0.909  -0.349   7.384  1.00  0.00     0.000 A 
HETATM   15  C   UNL     1       2.226   0.086   7.284  1.00  0.00     0.002 A 
HETATM   16  C   UNL     1       2.809   0.261   6.025  1.00  0.00     0.029 A 
ENDBRANCH   9  11
ENDBRANCH   1   9
TORSDOF 5
