REMARK  4 active torsions:
REMARK  status: ('A' for Active; 'I' for Inactive)
REMARK    1  A    between atoms: C_2  and  C_3 
REMARK       I    between atoms: C_2  and  N_13 
REMARK    2  A    between atoms: C_3  and  N_4 
REMARK    3  A    between atoms: N_4  and  C_5 
REMARK    4  A    between atoms: N_13  and  O_14 
ROOT
HETATM    1  N   UNL     1       2.150  -1.973   1.550  1.00  0.00    -0.284 NA
HETATM    2  H   UNL     1       1.382  -2.296   0.957  1.00  0.00     0.128 HD
ENDROOT
BRANCH   1   3
HETATM    3  C   UNL     1       3.040  -1.058   0.801  1.00  0.00     0.197 C 
BRANCH   3   4
HETATM    4  C   UNL     1       2.245   0.070   0.146  1.00  0.00     0.254 C 
HETATM    5  O   UNL     1       2.538   0.568  -0.940  1.00  0.00    -0.270 OA
HETATM    6  N   UNL     1       1.195   0.528   0.903  1.00  0.00    -0.236 N 
HETATM    7  H   UNL     1       0.838   0.003   1.698  1.00  0.00     0.197 HD
BRANCH   6   8
HETATM    8  O   UNL     1       0.365   1.507   0.317  1.00  0.00    -0.287 OA
HETATM    9  H   UNL     1       0.805   1.671  -0.546  1.00  0.00     0.244 HD
ENDBRANCH   6   8
ENDBRANCH   3   4
ENDBRANCH   1   3
BRANCH   1  10
HETATM   10  C   UNL     1       2.763  -3.073   2.180  1.00  0.00     0.014 A 
HETATM   11  C   UNL     1       4.051  -3.027   2.728  1.00  0.00     0.066 A 
HETATM   12  C   UNL     1       4.586  -4.135   3.385  1.00  0.00     0.121 A 
HETATM   13  F   UNL     1       5.831  -4.066   3.875  1.00  0.00    -0.206 F 
HETATM   14  C   UNL     1       3.856  -5.300   3.548  1.00  0.00     0.084 A 
HETATM   15  C   UNL     1       2.560  -5.333   3.060  1.00  0.00     0.121 A 
HETATM   16  F   UNL     1       1.823  -6.439   3.224  1.00  0.00    -0.206 F 
HETATM   17  C   UNL     1       2.006  -4.234   2.401  1.00  0.00     0.066 A 
ENDBRANCH   1  10
TORSDOF 4
