REMARK  8 active torsions:
REMARK  status: ('A' for Active; 'I' for Inactive)
REMARK    1  A    between atoms: C_2  and  C_3 
REMARK    2  A    between atoms: C_3  and  C_4 
REMARK    3  A    between atoms: C_4  and  C_5 
REMARK    4  A    between atoms: C_5  and  C_6 
REMARK    5  A    between atoms: C_6  and  C_7 
REMARK    6  A    between atoms: C_10  and  O_11 
REMARK    7  A    between atoms: C_12  and  O_13 
REMARK    8  A    between atoms: C_14  and  O_15 
ROOT
HETATM    1  C   UNL     1       7.118  -2.635   3.478  1.00  0.00    -0.022 A 
HETATM    2  C   UNL     1       7.373  -2.103   4.756  1.00  0.00     0.013 A 
HETATM    3  C   UNL     1       7.704  -2.938   5.832  1.00  0.00     0.040 A 
HETATM    4  C   UNL     1       7.774  -4.312   5.630  1.00  0.00     0.101 A 
HETATM    5  C   UNL     1       7.533  -4.846   4.371  1.00  0.00     0.133 A 
HETATM    6  C   UNL     1       7.212  -4.017   3.302  1.00  0.00     0.107 A 
ENDROOT
BRANCH   1   7
HETATM    7  C   UNL     1       6.661  -1.732   2.360  1.00  0.00     0.041 C 
BRANCH   7   8
HETATM    8  C   UNL     1       5.132  -1.664   2.335  1.00  0.00     0.005 C 
BRANCH   8   9
HETATM    9  C   UNL     1       4.614  -0.771   1.210  1.00  0.00     0.000 C 
BRANCH   9  10
HETATM   10  C   UNL     1       3.086  -0.729   1.225  1.00  0.00    -0.000 C 
BRANCH  10  11
HETATM   11  C   UNL     1       2.536   0.156   0.109  1.00  0.00    -0.005 C 
HETATM   12  C   UNL     1       1.016   0.190   0.134  1.00  0.00     0.005 C 
ENDBRANCH  10  11
ENDBRANCH   9  10
ENDBRANCH   8   9
ENDBRANCH   7   8
ENDBRANCH   1   7
BRANCH   6  13
HETATM   13  O   UNL     1       6.964  -4.579   2.080  1.00  0.00    -0.357 OA
HETATM   14  H   UNL     1       7.091  -5.538   2.223  1.00  0.00     0.217 HD
ENDBRANCH   6  13
BRANCH   5  15
HETATM   15  O   UNL     1       7.584  -6.200   4.168  1.00  0.00    -0.356 OA
HETATM   16  H   UNL     1       7.789  -6.563   5.055  1.00  0.00     0.218 HD
ENDBRANCH   5  15
BRANCH   4  17
HETATM   17  O   UNL     1       8.064  -5.180   6.646  1.00  0.00    -0.358 OA
HETATM   18  H   UNL     1       8.188  -4.660   7.459  1.00  0.00     0.217 HD
ENDBRANCH   4  17
TORSDOF 8
