REMARK  5 active torsions:
REMARK  status: ('A' for Active; 'I' for Inactive)
REMARK    1  A    between atoms: C_2  and  C_3 
REMARK       I    between atoms: C_2  and  N_13 
REMARK    2  A    between atoms: C_3  and  C_4 
REMARK    3  A    between atoms: C_4  and  N_5 
REMARK    4  A    between atoms: N_5  and  C_6 
REMARK    5  A    between atoms: N_13  and  O_14 
ROOT
HETATM    1  N   UNL     1       2.723  -1.835  -3.126  1.00  0.00    -0.291 NA
HETATM    2  H   UNL     1       3.534  -2.425  -2.928  1.00  0.00     0.127 HD
ENDROOT
BRANCH   1   3
HETATM    3  C   UNL     1       2.074  -1.312  -1.920  1.00  0.00     0.102 C 
BRANCH   3   4
HETATM    4  C   UNL     1       3.078  -0.623  -1.007  1.00  0.00     0.119 C 
BRANCH   4   5
HETATM    5  C   UNL     1       2.363  -0.105   0.222  1.00  0.00     0.242 C 
HETATM    6  O   UNL     1       1.163  -0.250   0.444  1.00  0.00    -0.271 OA
HETATM    7  N   UNL     1       3.183   0.548   1.106  1.00  0.00    -0.237 N 
HETATM    8  H   UNL     1       4.152   0.797   0.938  1.00  0.00     0.197 HD
BRANCH   7   9
HETATM    9  O   UNL     1       2.563   1.087   2.255  1.00  0.00    -0.287 OA
HETATM   10  H   UNL     1       1.627   0.813   2.137  1.00  0.00     0.244 HD
ENDBRANCH   7   9
ENDBRANCH   4   5
ENDBRANCH   3   4
ENDBRANCH   1   3
BRANCH   1  11
HETATM   11  C   UNL     1       1.879  -2.512  -4.045  1.00  0.00     0.030 A 
HETATM   12  C   UNL     1       0.548  -2.119  -4.258  1.00  0.00     0.025 A 
HETATM   13  C   UNL     1      -0.264  -2.758  -5.199  1.00  0.00     0.002 A 
HETATM   14  C   UNL     1       0.248  -3.786  -5.981  1.00  0.00     0.002 A 
HETATM   15  C   UNL     1       1.579  -4.169  -5.829  1.00  0.00     0.026 A 
HETATM   16  C   UNL     1       2.388  -3.531  -4.880  1.00  0.00     0.055 A 
HETATM   17 CL   UNL     1       4.030  -4.060  -4.728  1.00  0.00    -0.082 Cl
ENDBRANCH   1  11
TORSDOF 5
