REMARK  5 active torsions:
REMARK  status: ('A' for Active; 'I' for Inactive)
REMARK    1  A    between atoms: C_2  and  C_3 
REMARK       I    between atoms: C_2  and  N_14 
REMARK    2  A    between atoms: C_3  and  C_4 
REMARK    3  A    between atoms: C_4  and  N_5 
REMARK    4  A    between atoms: N_5  and  C_6 
REMARK    5  A    between atoms: N_14  and  O_15 
ROOT
HETATM    1  N   UNL     1       2.859   1.627  -3.294  1.00  0.00    -0.291 NA
HETATM    2  H   UNL     1       3.641   1.056  -3.622  1.00  0.00     0.127 HD
ENDROOT
BRANCH   1   3
HETATM    3  C   UNL     1       2.113   1.016  -2.189  1.00  0.00     0.102 C 
BRANCH   3   4
HETATM    4  C   UNL     1       3.073   0.563  -1.097  1.00  0.00     0.119 C 
BRANCH   4   5
HETATM    5  C   UNL     1       2.321  -0.079   0.045  1.00  0.00     0.242 C 
HETATM    6  O   UNL     1       1.105  -0.244   0.074  1.00  0.00    -0.271 OA
HETATM    7  N   UNL     1       3.136  -0.485   1.072  1.00  0.00    -0.237 N 
HETATM    8  H   UNL     1       4.144  -0.375   1.105  1.00  0.00     0.197 HD
BRANCH   7   9
HETATM    9  O   UNL     1       2.515  -1.108   2.175  1.00  0.00    -0.287 OA
HETATM   10  H   UNL     1       1.569  -1.110   1.913  1.00  0.00     0.244 HD
ENDBRANCH   7   9
ENDBRANCH   4   5
ENDBRANCH   3   4
ENDBRANCH   1   3
BRANCH   1  11
HETATM   11  C   UNL     1       2.139   2.119  -4.405  1.00  0.00     0.031 A 
HETATM   12  C   UNL     1       0.840   2.636  -4.284  1.00  0.00     0.049 A 
HETATM   13  C   UNL     1       0.179   3.192  -5.383  1.00  0.00     0.035 A 
HETATM   14 CL   UNL     1      -1.423   3.794  -5.195  1.00  0.00    -0.084 Cl
HETATM   15  C   UNL     1       0.802   3.271  -6.624  1.00  0.00     0.026 A 
HETATM   16  C   UNL     1       2.105   2.798  -6.766  1.00  0.00     0.027 A 
HETATM   17  C   UNL     1       2.768   2.240  -5.666  1.00  0.00     0.055 A 
HETATM   18 CL   UNL     1       4.386   1.665  -5.903  1.00  0.00    -0.082 Cl
ENDBRANCH   1  11
TORSDOF 5
