REMARK  4 active torsions:
REMARK  status: ('A' for Active; 'I' for Inactive)
REMARK    1  A    between atoms: C_2  and  C_3 
REMARK       I    between atoms: C_2  and  N_12 
REMARK    2  A    between atoms: C_3  and  N_4 
REMARK    3  A    between atoms: N_4  and  C_5 
REMARK    4  A    between atoms: N_12  and  O_13 
ROOT
HETATM    1  N   UNL     1       2.040  -1.685   1.905  1.00  0.00    -0.283 NA
HETATM    2  H   UNL     1       1.230  -2.091   1.424  1.00  0.00     0.128 HD
ENDROOT
BRANCH   1   3
HETATM    3  C   UNL     1       2.936  -0.996   0.955  1.00  0.00     0.197 C 
BRANCH   3   4
HETATM    4  C   UNL     1       2.175   0.024   0.108  1.00  0.00     0.254 C 
HETATM    5  O   UNL     1       2.576   0.431  -0.983  1.00  0.00    -0.270 OA
HETATM    6  N   UNL     1       1.028   0.503   0.688  1.00  0.00    -0.236 N 
HETATM    7  H   UNL     1       0.801   0.322   1.664  1.00  0.00     0.197 HD
BRANCH   6   8
HETATM    8  O   UNL     1       0.358   1.551   0.022  1.00  0.00    -0.287 OA
HETATM    9  H   UNL     1       0.920   1.692  -0.770  1.00  0.00     0.244 HD
ENDBRANCH   6   8
ENDBRANCH   3   4
ENDBRANCH   1   3
BRANCH   1  10
HETATM   10  C   UNL     1       2.623  -2.692   2.712  1.00  0.00     0.030 A 
HETATM   11  C   UNL     1       3.913  -2.561   3.249  1.00  0.00     0.025 A 
HETATM   12  C   UNL     1       4.450  -3.539   4.092  1.00  0.00     0.002 A 
HETATM   13  C   UNL     1       3.697  -4.656   4.444  1.00  0.00     0.002 A 
HETATM   14  C   UNL     1       2.396  -4.789   3.964  1.00  0.00     0.026 A 
HETATM   15  C   UNL     1       1.863  -3.809   3.120  1.00  0.00     0.055 A 
HETATM   16 CL   UNL     1       0.239  -4.024   2.551  1.00  0.00    -0.082 Cl
ENDBRANCH   1  10
TORSDOF 4
