REMARK  4 active torsions:
REMARK  status: ('A' for Active; 'I' for Inactive)
REMARK    1  A    between atoms: C_2  and  C_3 
REMARK       I    between atoms: C_2  and  N_13 
REMARK    2  A    between atoms: C_3  and  N_4 
REMARK    3  A    between atoms: N_4  and  C_5 
REMARK    4  A    between atoms: N_13  and  O_14 
ROOT
HETATM    1  N   UNL     1       2.117  -1.873  -1.718  1.00  0.00    -0.284 NA
HETATM    2  H   UNL     1       1.284  -1.351  -2.008  1.00  0.00     0.128 HD
ENDROOT
BRANCH   1   3
HETATM    3  C   UNL     1       3.034  -1.014  -0.959  1.00  0.00     0.197 C 
BRANCH   3   4
HETATM    4  C   UNL     1       2.282   0.173  -0.355  1.00  0.00     0.254 C 
HETATM    5  O   UNL     1       1.189   0.570  -0.763  1.00  0.00    -0.270 OA
HETATM    6  N   UNL     1       2.953   0.800   0.671  1.00  0.00    -0.236 N 
HETATM    7  H   UNL     1       3.708   0.369   1.194  1.00  0.00     0.197 HD
BRANCH   6   8
HETATM    8  O   UNL     1       2.256   1.843   1.322  1.00  0.00    -0.287 OA
HETATM    9  H   UNL     1       1.393   1.854   0.852  1.00  0.00     0.244 HD
ENDBRANCH   6   8
ENDBRANCH   3   4
ENDBRANCH   1   3
BRANCH   1  10
HETATM   10  C   UNL     1       2.648  -2.666  -2.739  1.00  0.00     0.010 A 
HETATM   11  C   UNL     1       3.943  -3.198  -2.693  1.00  0.00     0.025 A 
HETATM   12  C   UNL     1       4.428  -4.014  -3.719  1.00  0.00     0.027 A 
HETATM   13  C   UNL     1       3.607  -4.342  -4.799  1.00  0.00     0.055 A 
HETATM   14 CL   UNL     1       4.274  -5.337  -6.044  1.00  0.00    -0.083 Cl
HETATM   15  C   UNL     1       2.294  -3.872  -4.833  1.00  0.00     0.057 A 
HETATM   16 CL   UNL     1       1.206  -4.257  -6.119  1.00  0.00    -0.082 Cl
HETATM   17  C   UNL     1       1.818  -3.055  -3.800  1.00  0.00     0.049 A 
ENDBRANCH   1  10
TORSDOF 4
