REMARK  5 active torsions:
REMARK  status: ('A' for Active; 'I' for Inactive)
REMARK    1  A    between atoms: C_2  and  C_3 
REMARK       I    between atoms: C_2  and  N_14 
REMARK    2  A    between atoms: C_3  and  C_4 
REMARK    3  A    between atoms: C_4  and  N_5 
REMARK    4  A    between atoms: N_5  and  C_6 
REMARK    5  A    between atoms: N_14  and  O_15 
ROOT
HETATM    1  N   UNL     1       2.793   2.664  -2.503  1.00  0.00    -0.293 NA
HETATM    2  H   UNL     1       3.612   2.248  -2.944  1.00  0.00     0.127 HD
ENDROOT
BRANCH   1   3
HETATM    3  C   UNL     1       2.054   1.705  -1.669  1.00  0.00     0.101 C 
BRANCH   3   4
HETATM    4  C   UNL     1       3.001   0.978  -0.723  1.00  0.00     0.119 C 
BRANCH   4   5
HETATM    5  C   UNL     1       2.244  -0.020   0.126  1.00  0.00     0.242 C 
HETATM    6  O   UNL     1       1.040  -0.237   0.039  1.00  0.00    -0.271 OA
HETATM    7  N   UNL     1       3.043  -0.691   1.019  1.00  0.00    -0.237 N 
HETATM    8  H   UNL     1       4.046  -0.573   1.113  1.00  0.00     0.197 HD
BRANCH   7   9
HETATM    9  O   UNL     1       2.428  -1.665   1.830  1.00  0.00    -0.287 OA
HETATM   10  H   UNL     1       1.495  -1.644   1.523  1.00  0.00     0.244 HD
ENDBRANCH   7   9
ENDBRANCH   4   5
ENDBRANCH   3   4
ENDBRANCH   1   3
BRANCH   1  11
HETATM   11  C   UNL     1       2.046   3.407  -3.436  1.00  0.00     0.009 A 
HETATM   12  C   UNL     1       0.717   3.791  -3.214  1.00  0.00     0.025 A 
HETATM   13  C   UNL     1       0.022   4.578  -4.138  1.00  0.00     0.027 A 
HETATM   14  C   UNL     1       0.654   5.023  -5.296  1.00  0.00     0.055 A 
HETATM   15 CL   UNL     1      -0.265   5.986  -6.395  1.00  0.00    -0.083 Cl
HETATM   16  C   UNL     1       1.992   4.690  -5.518  1.00  0.00     0.057 A 
HETATM   17 CL   UNL     1       2.849   5.208  -6.928  1.00  0.00    -0.082 Cl
HETATM   18  C   UNL     1       2.684   3.905  -4.583  1.00  0.00     0.049 A 
ENDBRANCH   1  11
TORSDOF 5
