REMARK  4 active torsions:
REMARK  status: ('A' for Active; 'I' for Inactive)
REMARK    1  A    between atoms: C_2  and  C_3 
REMARK       I    between atoms: C_2  and  N_12 
REMARK    2  A    between atoms: C_3  and  N_4 
REMARK    3  A    between atoms: N_4  and  C_5 
REMARK    4  A    between atoms: N_12  and  O_13 
ROOT
HETATM    1  N   UNL     1       2.055   2.475  -0.431  1.00  0.00    -0.284 NA
HETATM    2  H   UNL     1       1.321   2.472   0.283  1.00  0.00     0.128 HD
ENDROOT
BRANCH   1   3
HETATM    3  C   UNL     1       2.963   1.326  -0.217  1.00  0.00     0.197 C 
BRANCH   3   4
HETATM    4  C   UNL     1       2.195   0.008  -0.308  1.00  0.00     0.254 C 
HETATM    5  O   UNL     1       2.466  -0.983   0.369  1.00  0.00    -0.270 OA
HETATM    6  N   UNL     1       1.179   0.011  -1.231  1.00  0.00    -0.236 N 
HETATM    7  H   UNL     1       0.796   0.893  -1.566  1.00  0.00     0.197 HD
BRANCH   6   8
HETATM    8  O   UNL     1       0.329  -1.119  -1.222  1.00  0.00    -0.287 OA
HETATM    9  H   UNL     1       0.733  -1.686  -0.530  1.00  0.00     0.244 HD
ENDBRANCH   6   8
ENDBRANCH   3   4
ENDBRANCH   1   3
BRANCH   1  10
HETATM   10  C   UNL     1       2.642   3.757  -0.406  1.00  0.00     0.008 A 
HETATM   11  C   UNL     1       1.969   4.791  -1.075  1.00  0.00     0.026 A 
HETATM   12  C   UNL     1       2.430   6.109  -1.014  1.00  0.00     0.044 A 
HETATM   13  C   UNL     1       3.550   6.405  -0.254  1.00  0.00     0.116 A 
HETATM   14  F   UNL     1       3.990   7.668  -0.182  1.00  0.00    -0.206 F 
HETATM   15  C   UNL     1       4.212   5.409   0.450  1.00  0.00     0.044 A 
HETATM   16  C   UNL     1       3.754   4.090   0.379  1.00  0.00     0.026 A 
ENDBRANCH   1  10
TORSDOF 4
