REMARK  4 active torsions:
REMARK  status: ('A' for Active; 'I' for Inactive)
REMARK    1  A    between atoms: C_2  and  C_3 
REMARK       I    between atoms: C_2  and  N_13 
REMARK    2  A    between atoms: C_3  and  N_4 
REMARK    3  A    between atoms: N_4  and  C_5 
REMARK    4  A    between atoms: N_13  and  O_14 
ROOT
HETATM    1  N   UNL     1       2.050  -1.916   1.568  1.00  0.00    -0.283 NA
HETATM    2  H   UNL     1       1.251  -2.178   0.984  1.00  0.00     0.128 HD
ENDROOT
BRANCH   1   3
HETATM    3  C   UNL     1       2.981  -1.048   0.840  1.00  0.00     0.197 C 
BRANCH   3   4
HETATM    4  C   UNL     1       3.123  -1.440  -0.629  1.00  0.00     0.254 C 
HETATM    5  O   UNL     1       2.184  -1.824  -1.327  1.00  0.00    -0.270 OA
HETATM    6  N   UNL     1       4.398  -1.318  -1.125  1.00  0.00    -0.236 N 
HETATM    7  H   UNL     1       5.194  -0.942  -0.622  1.00  0.00     0.197 HD
BRANCH   6   8
HETATM    8  O   UNL     1       4.581  -1.592  -2.498  1.00  0.00    -0.287 OA
HETATM    9  H   UNL     1       3.660  -1.740  -2.811  1.00  0.00     0.244 HD
ENDBRANCH   6   8
ENDBRANCH   3   4
ENDBRANCH   1   3
BRANCH   1  10
HETATM   10  C   UNL     1       2.545  -3.039   2.251  1.00  0.00     0.030 A 
HETATM   11  C   UNL     1       3.635  -3.784   1.778  1.00  0.00     0.027 A 
HETATM   12  C   UNL     1       4.096  -4.912   2.469  1.00  0.00     0.026 A 
HETATM   13  C   UNL     1       3.456  -5.323   3.633  1.00  0.00     0.035 A 
HETATM   14 CL   UNL     1       4.049  -6.689   4.493  1.00  0.00    -0.084 Cl
HETATM   15  C   UNL     1       2.338  -4.642   4.099  1.00  0.00     0.049 A 
HETATM   16  C   UNL     1       1.876  -3.523   3.400  1.00  0.00     0.056 A 
HETATM   17 CL   UNL     1       0.468  -2.721   4.014  1.00  0.00    -0.082 Cl
ENDBRANCH   1  10
TORSDOF 4
