REMARK  5 active torsions:
REMARK  status: ('A' for Active; 'I' for Inactive)
REMARK    1  A    between atoms: C_7  and  N_8 
REMARK    2  A    between atoms: N_8  and  C_9 
REMARK    3  A    between atoms: C_9  and  C_10 
REMARK    4  A    between atoms: C_10  and  C_11 
REMARK       I    between atoms: C_11  and  N_13 
REMARK    5  A    between atoms: N_13  and  O_14 
ROOT
HETATM    1  N   UNL     1       0.011  -3.207  -0.139  1.00  0.00    -0.389 N 
HETATM    2  H   UNL     1       0.813  -3.602   0.343  1.00  0.00     0.159 HD
ENDROOT
BRANCH   1   3
HETATM    3  C   UNL     1      -0.027  -1.807  -0.019  1.00  0.00     0.028 A 
HETATM    4  C   UNL     1      -1.215  -1.065  -0.041  1.00  0.00     0.036 A 
HETATM    5  C   UNL     1      -1.214   0.338  -0.005  1.00  0.00    -0.059 A 
HETATM    6  C   UNL     1       0.004   1.019   0.022  1.00  0.00     0.013 A 
HETATM    7  C   UNL     1      -2.521   1.071  -0.007  1.00  0.00     0.048 C 
HETATM    8  C   UNL     1       1.209   0.312   0.011  1.00  0.00    -0.059 A 
HETATM    9  C   UNL     1       2.522   1.038   0.014  1.00  0.00     0.048 C 
HETATM   10  C   UNL     1       1.182  -1.094  -0.012  1.00  0.00     0.036 A 
ENDBRANCH   1   3
BRANCH   1  11
HETATM   11  C   UNL     1      -1.241  -3.950   0.013  1.00  0.00     0.129 C 
BRANCH  11  12
HETATM   12  C   UNL     1      -0.996  -5.453   0.022  1.00  0.00     0.124 C 
BRANCH  12  13
HETATM   13  C   UNL     1      -2.317  -6.184   0.071  1.00  0.00     0.242 C 
HETATM   14  O   UNL     1      -3.417  -5.634   0.084  1.00  0.00    -0.271 OA
HETATM   15  N   UNL     1      -2.202  -7.550   0.106  1.00  0.00    -0.237 N 
HETATM   16  H   UNL     1      -1.340  -8.076   0.023  1.00  0.00     0.197 HD
BRANCH  15  17
HETATM   17  O   UNL     1      -3.413  -8.278   0.111  1.00  0.00    -0.287 OA
HETATM   18  H   UNL     1      -4.090  -7.568   0.087  1.00  0.00     0.244 HD
ENDBRANCH  15  17
ENDBRANCH  12  13
ENDBRANCH  11  12
ENDBRANCH   1  11
TORSDOF 5
