REMARK  4 active torsions:
REMARK  status: ('A' for Active; 'I' for Inactive)
REMARK    1  A    between atoms: C_5  and  N_6 
REMARK    2  A    between atoms: N_6  and  C_7 
REMARK    3  A    between atoms: C_7  and  C_8 
REMARK       I    between atoms: C_8  and  N_10 
REMARK    4  A    between atoms: N_10  and  O_11 
ROOT
HETATM    1  N   UNL     1      -3.268   0.158   0.041  1.00  0.00    -0.284 NA
HETATM    2  H   UNL     1      -3.495   0.310   1.027  1.00  0.00     0.128 HD
ENDROOT
BRANCH   1   3
HETATM    3  C   UNL     1      -1.866   0.054  -0.049  1.00  0.00     0.008 A 
HETATM    4  C   UNL     1      -1.125   1.240   0.002  1.00  0.00     0.024 A 
HETATM    5  C   UNL     1       0.277   1.223   0.001  1.00  0.00     0.008 A 
HETATM    6  C   UNL     1       0.967   0.012  -0.013  1.00  0.00    -0.062 A 
HETATM    7  C   UNL     1       2.467  -0.032  -0.013  1.00  0.00     0.048 C 
HETATM    8  C   UNL     1       0.235  -1.180  -0.019  1.00  0.00     0.008 A 
HETATM    9  C   UNL     1      -1.165  -1.155  -0.026  1.00  0.00     0.024 A 
ENDBRANCH   1   3
BRANCH   1  10
HETATM   10  C   UNL     1      -4.065  -0.963  -0.500  1.00  0.00     0.197 C 
BRANCH  10  11
HETATM   11  C   UNL     1      -5.558  -0.748  -0.243  1.00  0.00     0.254 C 
HETATM   12  O   UNL     1      -6.377  -1.665  -0.206  1.00  0.00    -0.270 OA
HETATM   13  N   UNL     1      -5.920   0.561  -0.067  1.00  0.00    -0.236 N 
HETATM   14  H   UNL     1      -5.279   1.333  -0.234  1.00  0.00     0.197 HD
BRANCH  13  15
HETATM   15  O   UNL     1      -7.286   0.839   0.144  1.00  0.00    -0.287 OA
HETATM   16  H   UNL     1      -7.684  -0.059   0.151  1.00  0.00     0.244 HD
ENDBRANCH  13  15
ENDBRANCH  10  11
ENDBRANCH   1  10
TORSDOF 4
