REMARK  5 active torsions:
REMARK  status: ('A' for Active; 'I' for Inactive)
REMARK    1  A    between atoms: O_1  and  C_2 
REMARK    2  A    between atoms: C_5  and  C_6 
REMARK    3  A    between atoms: C_6  and  C_7 
REMARK    4  A    between atoms: C_7  and  C_8 
REMARK    5  A    between atoms: C_16  and  O_17 
ROOT
HETATM    1  C   UNL     1       0.554  -0.744   0.069  1.00  0.00     0.098 A 
HETATM    2  C   UNL     1      -0.550  -1.302  -0.565  1.00  0.00     0.040 A 
HETATM    3  C   UNL     1      -1.763  -0.604  -0.593  1.00  0.00     0.010 A 
HETATM    4  C   UNL     1      -1.891   0.649   0.027  1.00  0.00    -0.055 A 
HETATM    5  C   UNL     1      -0.759   1.205   0.648  1.00  0.00     0.046 A 
HETATM    6  C   UNL     1       0.452   0.508   0.671  1.00  0.00     0.099 A 
ENDROOT
BRANCH   4   7
HETATM    7  C   UNL     1      -3.180   1.450  -0.009  1.00  0.00     0.043 C 
BRANCH   7   8
HETATM    8  C   UNL     1      -4.469   0.616  -0.018  1.00  0.00     0.043 C 
BRANCH   8   9
HETATM    9  C   UNL     1      -5.720   1.463   0.033  1.00  0.00    -0.057 A 
HETATM   10  C   UNL     1      -6.284   1.823   1.265  1.00  0.00     0.007 A 
HETATM   11  C   UNL     1      -7.461   2.573   1.314  1.00  0.00     0.002 A 
HETATM   12  C   UNL     1      -8.084   2.977   0.134  1.00  0.00     0.019 A 
HETATM   13  C   UNL     1      -7.520   2.635  -1.093  1.00  0.00     0.011 A 
HETATM   14 BR   UNL     1      -8.367   3.175  -2.695  1.00  0.00    -0.051 Br
HETATM   15  C   UNL     1      -6.342   1.887  -1.150  1.00  0.00     0.026 A 
ENDBRANCH   8   9
ENDBRANCH   7   8
ENDBRANCH   4   7
BRANCH   6  16
HETATM   16  O   UNL     1       1.550   1.049   1.278  1.00  0.00    -0.358 OA
HETATM   17  H   UNL     1       1.321   1.923   1.628  1.00  0.00     0.217 HD
ENDBRANCH   6  16
BRANCH   1  18
HETATM   18  O   UNL     1       1.745  -1.413   0.102  1.00  0.00    -0.358 OA
HETATM   19  H   UNL     1       1.644  -2.260  -0.355  1.00  0.00     0.217 HD
ENDBRANCH   1  18
TORSDOF 5
