REMARK  5 active torsions:
REMARK  status: ('A' for Active; 'I' for Inactive)
REMARK    1  A    between atoms: C_2  and  C_3 
REMARK       I    between atoms: C_2  and  N_14 
REMARK    2  A    between atoms: C_3  and  N_4 
REMARK    3  A    between atoms: N_4  and  C_5 
REMARK    4  A    between atoms: C_9  and  N_10 
REMARK    5  A    between atoms: N_14  and  O_15 
ROOT
HETATM    1  C   UNL     1       2.653   3.366  -1.756  1.00  0.00     0.011 A 
HETATM    2  C   UNL     1       3.672   3.169  -2.698  1.00  0.00     0.023 A 
HETATM    3  C   UNL     1       4.118   4.216  -3.513  1.00  0.00     0.004 A 
HETATM    4  C   UNL     1       3.536   5.477  -3.415  1.00  0.00     0.036 A 
HETATM    5  C   UNL     1       2.490   5.674  -2.508  1.00  0.00     0.104 A 
HETATM    6  C   UNL     1       2.037   4.622  -1.699  1.00  0.00     0.059 A 
ENDROOT
BRANCH   1   7
HETATM    7  N   UNL     1       2.109   2.338  -0.966  1.00  0.00    -0.284 NA
HETATM    8  H   UNL     1       1.298   1.954  -1.460  1.00  0.00     0.128 HD
BRANCH   7   9
HETATM    9  C   UNL     1       3.019   1.238  -0.575  1.00  0.00     0.197 C 
BRANCH   9  10
HETATM   10  C   UNL     1       2.342   0.273   0.399  1.00  0.00     0.254 C 
HETATM   11  O   UNL     1       2.739  -0.874   0.596  1.00  0.00    -0.270 OA
HETATM   12  N   UNL     1       1.265   0.799   1.067  1.00  0.00    -0.236 N 
HETATM   13  H   UNL     1       1.051   1.793   1.045  1.00  0.00     0.197 HD
BRANCH  12  14
HETATM   14  O   UNL     1       0.661  -0.003   2.057  1.00  0.00    -0.287 OA
HETATM   15  H   UNL     1       1.214  -0.814   2.042  1.00  0.00     0.244 HD
ENDBRANCH  12  14
ENDBRANCH   9  10
ENDBRANCH   7   9
ENDBRANCH   1   7
BRANCH   5  16
HETATM   16  N   UNL     1       1.861   6.995  -2.405  1.00  0.00    -0.116 N 
HETATM   17  O   UNL     1       2.314   7.907  -3.109  1.00  0.00    -0.532 OA
HETATM   18  O   UNL     1       0.910   7.122  -1.619  1.00  0.00    -0.532 OA
ENDBRANCH   5  16
TORSDOF 5
