REMARK  4 active torsions:
REMARK  status: ('A' for Active; 'I' for Inactive)
REMARK    1  A    between atoms: C_2  and  C_3 
REMARK       I    between atoms: C_2  and  N_12 
REMARK    2  A    between atoms: C_3  and  N_4 
REMARK    3  A    between atoms: N_4  and  C_5 
REMARK    4  A    between atoms: N_12  and  O_13 
ROOT
HETATM    1  N   UNL     1       1.974   1.035   2.172  1.00  0.00    -0.284 NA
HETATM    2  H   UNL     1       1.208   0.382   2.360  1.00  0.00     0.128 HD
ENDROOT
BRANCH   1   3
HETATM    3  C   UNL     1       2.863   0.478   1.127  1.00  0.00     0.197 C 
BRANCH   3   4
HETATM    4  C   UNL     1       2.103   0.248  -0.177  1.00  0.00     0.254 C 
HETATM    5  O   UNL     1       2.342  -0.685  -0.944  1.00  0.00    -0.270 OA
HETATM    6  N   UNL     1       1.138   1.187  -0.445  1.00  0.00    -0.236 N 
HETATM    7  H   UNL     1       0.767   1.767   0.301  1.00  0.00     0.197 HD
BRANCH   6   8
HETATM    8  O   UNL     1       0.302   0.917  -1.554  1.00  0.00    -0.287 OA
HETATM    9  H   UNL     1       0.677   0.078  -1.904  1.00  0.00     0.244 HD
ENDBRANCH   6   8
ENDBRANCH   3   4
ENDBRANCH   1   3
BRANCH   1  10
HETATM   10  C   UNL     1       2.579   1.329   3.412  1.00  0.00     0.008 A 
HETATM   11  C   UNL     1       1.961   2.282   4.233  1.00  0.00     0.025 A 
HETATM   12  C   UNL     1       2.456   2.568   5.511  1.00  0.00     0.025 A 
HETATM   13  C   UNL     1       3.560   1.873   5.994  1.00  0.00     0.034 A 
HETATM   14 CL   UNL     1       4.177   2.217   7.561  1.00  0.00    -0.084 Cl
HETATM   15  C   UNL     1       4.160   0.890   5.215  1.00  0.00     0.025 A 
HETATM   16  C   UNL     1       3.664   0.614   3.936  1.00  0.00     0.025 A 
ENDBRANCH   1  10
TORSDOF 4
