REMARK  3 active torsions:
REMARK  status: ('A' for Active; 'I' for Inactive)
REMARK    1  A    between atoms: C_2  and  C_3 
REMARK       I    between atoms: C_2  and  N_14 
REMARK    2  A    between atoms: C_3  and  N_4 
REMARK    3  A    between atoms: N_14  and  O_15 
ROOT
HETATM    1  N   UNL     1       1.938  -2.012  -1.237  1.00  0.00    -0.372 N 
HETATM    2  C   UNL     1       1.045  -1.619  -2.333  1.00  0.00     0.124 C 
HETATM    3  C   UNL     1       1.241  -2.511  -3.544  1.00  0.00     0.024 C 
HETATM    4  C   UNL     1       0.955  -3.957  -3.165  1.00  0.00     0.042 C 
HETATM    5  C   UNL     1       1.622  -4.346  -1.869  1.00  0.00    -0.032 A 
HETATM    6  C   UNL     1       1.731  -5.716  -1.567  1.00  0.00     0.009 A 
HETATM    7  C   UNL     1       2.326  -6.136  -0.383  1.00  0.00     0.001 A 
HETATM    8  C   UNL     1       2.810  -5.189   0.509  1.00  0.00     0.002 A 
HETATM    9  C   UNL     1       2.695  -3.825   0.218  1.00  0.00     0.030 A 
HETATM   10  C   UNL     1       2.100  -3.368  -0.969  1.00  0.00     0.036 A 
ENDROOT
BRANCH   1  11
HETATM   11  C   UNL     1       2.920  -1.006  -0.774  1.00  0.00     0.227 C 
BRANCH  11  12
HETATM   12  C   UNL     1       2.237   0.099   0.035  1.00  0.00     0.258 C 
HETATM   13  O   UNL     1       2.650   1.256   0.104  1.00  0.00    -0.270 OA
HETATM   14  N   UNL     1       1.125  -0.326   0.728  1.00  0.00    -0.236 N 
HETATM   15  H   UNL     1       0.650  -1.175   0.425  1.00  0.00     0.197 HD
BRANCH  14  16
HETATM   16  O   UNL     1       0.360   0.678   1.363  1.00  0.00    -0.287 OA
HETATM   17  H   UNL     1       0.908   1.481   1.224  1.00  0.00     0.244 HD
ENDBRANCH  14  16
ENDBRANCH  11  12
ENDBRANCH   1  11
TORSDOF 3
