REMARK  5 active torsions:
REMARK  status: ('A' for Active; 'I' for Inactive)
REMARK    1  A    between atoms: C_2  and  C_3 
REMARK       I    between atoms: C_2  and  N_14 
REMARK    2  A    between atoms: C_3  and  C_4 
REMARK    3  A    between atoms: C_4  and  N_5 
REMARK    4  A    between atoms: N_5  and  C_6 
REMARK    5  A    between atoms: N_14  and  O_15 
ROOT
HETATM    1  N   UNL     1       2.655   2.723   2.567  1.00  0.00    -0.292 NA
HETATM    2  H   UNL     1       3.436   3.196   2.114  1.00  0.00     0.127 HD
ENDROOT
BRANCH   1   3
HETATM    3  C   UNL     1       1.949   1.809   1.659  1.00  0.00     0.101 C 
BRANCH   3   4
HETATM    4  C   UNL     1       2.928   0.890   0.942  1.00  0.00     0.119 C 
BRANCH   4   5
HETATM    5  C   UNL     1       2.178  -0.018  -0.005  1.00  0.00     0.242 C 
HETATM    6  O   UNL     1       0.963   0.020  -0.189  1.00  0.00    -0.271 OA
HETATM    7  N   UNL     1       2.981  -0.903  -0.677  1.00  0.00    -0.237 N 
HETATM    8  H   UNL     1       3.980  -1.014  -0.548  1.00  0.00     0.197 HD
BRANCH   7   9
HETATM    9  O   UNL     1       2.340  -1.782  -1.576  1.00  0.00    -0.287 OA
HETATM   10  H   UNL     1       1.398  -1.512  -1.502  1.00  0.00     0.244 HD
ENDBRANCH   7   9
ENDBRANCH   4   5
ENDBRANCH   3   4
ENDBRANCH   1   3
BRANCH   1  11
HETATM   11  C   UNL     1       1.853   3.650   3.264  1.00  0.00     0.014 A 
HETATM   12  C   UNL     1       0.543   3.371   3.675  1.00  0.00     0.066 A 
HETATM   13  C   UNL     1      -0.198   4.309   4.393  1.00  0.00     0.121 A 
HETATM   14  F   UNL     1      -1.458   4.019   4.742  1.00  0.00    -0.206 F 
HETATM   15  C   UNL     1       0.345   5.529   4.752  1.00  0.00     0.084 A 
HETATM   16  C   UNL     1       1.660   5.790   4.402  1.00  0.00     0.121 A 
HETATM   17  F   UNL     1       2.215   6.956   4.758  1.00  0.00    -0.206 F 
HETATM   18  C   UNL     1       2.418   4.862   3.685  1.00  0.00     0.066 A 
ENDBRANCH   1  11
TORSDOF 5
