REMARK  4 active torsions:
REMARK  status: ('A' for Active; 'I' for Inactive)
REMARK    1  A    between atoms: C_2  and  C_3 
REMARK       I    between atoms: C_2  and  N_12 
REMARK    2  A    between atoms: C_3  and  N_4 
REMARK    3  A    between atoms: N_4  and  C_5 
REMARK    4  A    between atoms: N_12  and  O_13 
ROOT
HETATM    1  N   UNL     1       2.057  -0.829   2.223  1.00  0.00    -0.284 NA
HETATM    2  H   UNL     1       1.341  -1.434   1.820  1.00  0.00     0.128 HD
ENDROOT
BRANCH   1   3
HETATM    3  C   UNL     1       3.019  -0.399   1.187  1.00  0.00     0.197 C 
BRANCH   3   4
HETATM    4  C   UNL     1       2.268   0.198  -0.005  1.00  0.00     0.254 C 
HETATM    5  O   UNL     1       2.606   0.045  -1.176  1.00  0.00    -0.270 OA
HETATM    6  N   UNL     1       1.183   0.963   0.358  1.00  0.00    -0.236 N 
HETATM    7  H   UNL     1       0.778   0.876   1.288  1.00  0.00     0.197 HD
BRANCH   6   8
HETATM    8  O   UNL     1       0.350   1.416  -0.688  1.00  0.00    -0.287 OA
HETATM    9  H   UNL     1       0.804   1.072  -1.488  1.00  0.00     0.244 HD
ENDBRANCH   6   8
ENDBRANCH   3   4
ENDBRANCH   1   3
BRANCH   1  10
HETATM   10  C   UNL     1       2.565  -1.414   3.395  1.00  0.00     0.009 A 
HETATM   11  C   UNL     1       3.802  -1.077   3.957  1.00  0.00     0.023 A 
HETATM   12  C   UNL     1       4.223  -1.638   5.171  1.00  0.00     0.003 A 
HETATM   13  C   UNL     1       3.398  -2.524   5.857  1.00  0.00     0.019 A 
HETATM   14  C   UNL     1       2.149  -2.833   5.332  1.00  0.00     0.012 A 
HETATM   15 BR   UNL     1       1.007  -4.019   6.264  1.00  0.00    -0.051 Br
HETATM   16  C   UNL     1       1.727  -2.273   4.125  1.00  0.00     0.042 A 
ENDBRANCH   1  10
TORSDOF 4
