REMARK  5 active torsions:
REMARK  status: ('A' for Active; 'I' for Inactive)
REMARK    1  A    between atoms: C_2  and  C_3 
REMARK       I    between atoms: C_2  and  N_13 
REMARK    2  A    between atoms: C_3  and  C_4 
REMARK    3  A    between atoms: C_4  and  N_5 
REMARK    4  A    between atoms: N_5  and  C_6 
REMARK    5  A    between atoms: N_13  and  O_14 
ROOT
HETATM    1  N   UNL     1       2.814  -1.440  -3.522  1.00  0.00    -0.293 NA
HETATM    2  H   UNL     1       3.595  -2.058  -3.309  1.00  0.00     0.127 HD
ENDROOT
BRANCH   1   3
HETATM    3  C   UNL     1       2.099  -1.005  -2.316  1.00  0.00     0.101 C 
BRANCH   3   4
HETATM    4  C   UNL     1       3.075  -0.467  -1.279  1.00  0.00     0.119 C 
BRANCH   4   5
HETATM    5  C   UNL     1       2.331  -0.044  -0.035  1.00  0.00     0.242 C 
HETATM    6  O   UNL     1       1.117  -0.154   0.123  1.00  0.00    -0.271 OA
HETATM    7  N   UNL     1       3.139   0.475   0.944  1.00  0.00    -0.237 N 
HETATM    8  H   UNL     1       4.140   0.621   0.871  1.00  0.00     0.197 HD
BRANCH   7   9
HETATM    9  O   UNL     1       2.505   0.892   2.133  1.00  0.00    -0.287 OA
HETATM   10  H   UNL     1       1.562   0.680   1.957  1.00  0.00     0.244 HD
ENDBRANCH   7   9
ENDBRANCH   4   5
ENDBRANCH   3   4
ENDBRANCH   1   3
BRANCH   1  11
HETATM   11  C   UNL     1       2.033  -1.983  -4.560  1.00  0.00     0.008 A 
HETATM   12  C   UNL     1       0.716  -1.576  -4.823  1.00  0.00     0.026 A 
HETATM   13  C   UNL     1      -0.009  -2.109  -5.892  1.00  0.00     0.044 A 
HETATM   14  C   UNL     1       0.591  -3.034  -6.731  1.00  0.00     0.116 A 
HETATM   15  F   UNL     1      -0.104  -3.551  -7.752  1.00  0.00    -0.206 F 
HETATM   16  C   UNL     1       1.910  -3.417  -6.532  1.00  0.00     0.044 A 
HETATM   17  C   UNL     1       2.632  -2.879  -5.461  1.00  0.00     0.026 A 
ENDBRANCH   1  11
TORSDOF 5
