REMARK  4 active torsions:
REMARK  status: ('A' for Active; 'I' for Inactive)
REMARK    1  A    between atoms: C_2  and  C_3 
REMARK       I    between atoms: C_2  and  N_11 
REMARK    2  A    between atoms: C_3  and  N_4 
REMARK    3  A    between atoms: N_4  and  C_5 
REMARK    4  A    between atoms: N_11  and  O_12 
ROOT
HETATM    1  N   UNL     1       2.170  -1.024   2.185  1.00  0.00    -0.284 NA
HETATM    2  H   UNL     1       1.204  -0.698   2.120  1.00  0.00     0.128 HD
ENDROOT
BRANCH   1   3
HETATM    3  C   UNL     1       3.041  -0.375   1.193  1.00  0.00     0.197 C 
BRANCH   3   4
HETATM    4  C   UNL     1       2.416  -0.445  -0.204  1.00  0.00     0.254 C 
HETATM    5  O   UNL     1       2.736   0.299  -1.131  1.00  0.00    -0.270 OA
HETATM    6  N   UNL     1       1.475  -1.437  -0.352  1.00  0.00    -0.236 N 
HETATM    7  H   UNL     1       1.429  -2.209   0.309  1.00  0.00     0.197 HD
BRANCH   6   8
HETATM    8  O   UNL     1       0.951  -1.633  -1.647  1.00  0.00    -0.287 OA
HETATM    9  H   UNL     1       1.403  -0.934  -2.168  1.00  0.00     0.244 HD
ENDBRANCH   6   8
ENDBRANCH   3   4
ENDBRANCH   1   3
BRANCH   1  10
HETATM   10  C   UNL     1       2.554  -1.085   3.529  1.00  0.00     0.008 A 
HETATM   11  C   UNL     1       3.797  -0.672   4.017  1.00  0.00     0.023 A 
HETATM   12  C   UNL     1       4.121  -0.810   5.373  1.00  0.00     0.002 A 
HETATM   13  C   UNL     1       3.215  -1.393   6.254  1.00  0.00     0.000 A 
HETATM   14  C   UNL     1       1.986  -1.840   5.782  1.00  0.00     0.002 A 
HETATM   15  C   UNL     1       1.662  -1.686   4.431  1.00  0.00     0.023 A 
ENDBRANCH   1  10
TORSDOF 4
