REMARK  5 active torsions:
REMARK  status: ('A' for Active; 'I' for Inactive)
REMARK    1  A    between atoms: O_2  and  C_3 
REMARK    2  A    between atoms: C_6  and  N_7 
REMARK    3  A    between atoms: N_7  and  C_8 
REMARK    4  A    between atoms: C_8  and  C_9 
REMARK       I    between atoms: C_9  and  N_11 
REMARK    5  A    between atoms: N_11  and  O_12 
ROOT
HETATM    1  N   UNL     1       5.530   3.719   2.958  1.00  0.00    -0.284 NA
HETATM    2  H   UNL     1       5.236   4.651   2.654  1.00  0.00     0.128 HD
ENDROOT
BRANCH   1   3
HETATM    3  C   UNL     1       4.732   2.783   2.272  1.00  0.00     0.008 A 
HETATM    4  C   UNL     1       3.495   2.325   2.735  1.00  0.00     0.026 A 
HETATM    5  C   UNL     1       2.713   1.448   1.970  1.00  0.00     0.038 A 
HETATM    6  C   UNL     1       3.149   1.030   0.716  1.00  0.00     0.068 A 
HETATM    7  C   UNL     1       4.351   1.531   0.219  1.00  0.00     0.038 A 
HETATM    8  C   UNL     1       5.125   2.413   0.981  1.00  0.00     0.026 A 
BRANCH   6   9
HETATM    9  O   UNL     1       2.499   0.159  -0.113  1.00  0.00    -0.356 OA
HETATM   10  C   UNL     1       1.314  -0.445   0.390  1.00  0.00     0.210 C 
ENDBRANCH   6   9
ENDBRANCH   1   3
BRANCH   1  11
HETATM   11  C   UNL     1       5.498   3.638   4.435  1.00  0.00     0.197 C 
BRANCH  11  12
HETATM   12  C   UNL     1       6.506   4.596   5.064  1.00  0.00     0.254 C 
HETATM   13  O   UNL     1       6.396   5.040   6.206  1.00  0.00    -0.270 OA
HETATM   14  N   UNL     1       7.575   4.905   4.264  1.00  0.00    -0.236 N 
HETATM   15  H   UNL     1       7.697   4.514   3.333  1.00  0.00     0.197 HD
BRANCH  14  16
HETATM   16  O   UNL     1       8.551   5.780   4.780  1.00  0.00    -0.287 OA
HETATM   17  H   UNL     1       8.203   5.976   5.678  1.00  0.00     0.244 HD
ENDBRANCH  14  16
ENDBRANCH  11  12
ENDBRANCH   1  11
TORSDOF 5
