REMARK  5 active torsions:
REMARK  status: ('A' for Active; 'I' for Inactive)
REMARK    1  A    between atoms: O_2  and  C_3 
REMARK    2  A    between atoms: C_7  and  N_8 
REMARK    3  A    between atoms: N_8  and  C_9 
REMARK    4  A    between atoms: C_9  and  C_10 
REMARK       I    between atoms: C_10  and  N_12 
REMARK    5  A    between atoms: N_12  and  O_13 
ROOT
HETATM    1  N   UNL     1       6.502  -0.836   2.623  1.00  0.00    -0.284 NA
HETATM    2  H   UNL     1       6.318  -0.522   3.579  1.00  0.00     0.128 HD
ENDROOT
BRANCH   1   3
HETATM    3  C   UNL     1       5.262  -1.232   2.073  1.00  0.00     0.011 A 
HETATM    4  C   UNL     1       4.795  -2.522   2.348  1.00  0.00     0.023 A 
HETATM    5  C   UNL     1       3.548  -2.951   1.882  1.00  0.00     0.005 A 
HETATM    6  C   UNL     1       2.729  -2.081   1.161  1.00  0.00     0.037 A 
HETATM    7  C   UNL     1       3.151  -0.776   0.920  1.00  0.00     0.069 A 
HETATM    8  C   UNL     1       4.400  -0.359   1.396  1.00  0.00     0.060 A 
BRANCH   7   9
HETATM    9  O   UNL     1       2.456   0.189   0.244  1.00  0.00    -0.356 OA
HETATM   10  C   UNL     1       1.202  -0.186  -0.309  1.00  0.00     0.210 C 
ENDBRANCH   7   9
ENDBRANCH   1   3
BRANCH   1  11
HETATM   11  C   UNL     1       7.219   0.221   1.868  1.00  0.00     0.197 C 
BRANCH  11  12
HETATM   12  C   UNL     1       8.541   0.591   2.536  1.00  0.00     0.254 C 
HETATM   13  O   UNL     1       9.066   1.697   2.430  1.00  0.00    -0.270 OA
HETATM   14  N   UNL     1       9.131  -0.432   3.234  1.00  0.00    -0.236 N 
HETATM   15  H   UNL     1       8.624  -1.282   3.463  1.00  0.00     0.197 HD
BRANCH  14  16
HETATM   16  O   UNL     1      10.307  -0.122   3.948  1.00  0.00    -0.287 OA
HETATM   17  H   UNL     1      10.472   0.811   3.688  1.00  0.00     0.244 HD
ENDBRANCH  14  16
ENDBRANCH  11  12
ENDBRANCH   1  11
TORSDOF 5
