REMARK  6 active torsions:
REMARK  status: ('A' for Active; 'I' for Inactive)
REMARK    1  A    between atoms: O_1  and  C_2 
REMARK    2  A    between atoms: C_5  and  C_6 
REMARK    3  A    between atoms: C_6  and  C_7 
REMARK    4  A    between atoms: C_7  and  C_8 
REMARK    5  A    between atoms: C_15  and  O_16 
REMARK    6  A    between atoms: C_17  and  O_18 
ROOT
HETATM    1  C   UNL     1       1.087   0.370   0.354  1.00  0.00     0.101 A 
HETATM    2  C   UNL     1       0.419  -0.098   1.481  1.00  0.00     0.040 A 
HETATM    3  C   UNL     1      -0.719  -0.899   1.330  1.00  0.00     0.013 A 
HETATM    4  C   UNL     1      -1.208  -1.257   0.057  1.00  0.00    -0.022 A 
HETATM    5  C   UNL     1      -0.526  -0.762  -1.063  1.00  0.00     0.107 A 
HETATM    6  C   UNL     1       0.612   0.042  -0.911  1.00  0.00     0.133 A 
ENDROOT
BRANCH   4   7
HETATM    7  C   UNL     1      -2.437  -2.138  -0.017  1.00  0.00     0.046 C 
BRANCH   7   8
HETATM    8  C   UNL     1      -3.745  -1.331  -0.010  1.00  0.00     0.043 C 
BRANCH   8   9
HETATM    9  C   UNL     1      -5.024  -2.144   0.071  1.00  0.00    -0.058 A 
HETATM   10  C   UNL     1      -6.150  -1.575   0.693  1.00  0.00     0.009 A 
HETATM   11  C   UNL     1      -7.365  -2.264   0.757  1.00  0.00     0.024 A 
HETATM   12  C   UNL     1      -7.472  -3.527   0.189  1.00  0.00     0.034 A 
HETATM   13 CL   UNL     1      -8.967  -4.377   0.258  1.00  0.00    -0.084 Cl
HETATM   14  C   UNL     1      -6.375  -4.106  -0.444  1.00  0.00     0.024 A 
HETATM   15  C   UNL     1      -5.159  -3.415  -0.508  1.00  0.00     0.009 A 
ENDBRANCH   8   9
ENDBRANCH   7   8
ENDBRANCH   4   7
BRANCH   5  16
HETATM   16  O   UNL     1      -0.896  -1.021  -2.358  1.00  0.00    -0.357 OA
HETATM   17  H   UNL     1      -1.646  -1.635  -2.367  1.00  0.00     0.217 HD
ENDBRANCH   5  16
BRANCH   6  18
HETATM   18  O   UNL     1       1.259   0.495  -2.031  1.00  0.00    -0.356 OA
HETATM   19  H   UNL     1       0.743   0.134  -2.776  1.00  0.00     0.218 HD
ENDBRANCH   6  18
BRANCH   1  20
HETATM   20  O   UNL     1       2.205   1.144   0.479  1.00  0.00    -0.358 OA
HETATM   21  H   UNL     1       2.413   1.257   1.419  1.00  0.00     0.217 HD
ENDBRANCH   1  20
TORSDOF 6
