REMARK  6 active torsions:
REMARK  status: ('A' for Active; 'I' for Inactive)
REMARK    1  A    between atoms: O_1  and  C_2 
REMARK    2  A    between atoms: C_5  and  C_6 
REMARK    3  A    between atoms: C_6  and  C_7 
REMARK    4  A    between atoms: C_7  and  C_8 
REMARK    5  A    between atoms: C_15  and  O_16 
REMARK    6  A    between atoms: C_17  and  O_18 
ROOT
HETATM    1  C   UNL     1       1.093   0.386   0.356  1.00  0.00     0.101 A 
HETATM    2  C   UNL     1       0.419  -0.073   1.483  1.00  0.00     0.040 A 
HETATM    3  C   UNL     1      -0.721  -0.872   1.331  1.00  0.00     0.013 A 
HETATM    4  C   UNL     1      -1.204  -1.236   0.059  1.00  0.00    -0.022 A 
HETATM    5  C   UNL     1      -0.517  -0.750  -1.061  1.00  0.00     0.107 A 
HETATM    6  C   UNL     1       0.621   0.053  -0.909  1.00  0.00     0.133 A 
ENDROOT
BRANCH   4   7
HETATM    7  C   UNL     1      -2.428  -2.123  -0.012  1.00  0.00     0.046 C 
BRANCH   7   8
HETATM    8  C   UNL     1      -3.744  -1.334  -0.002  1.00  0.00     0.043 C 
BRANCH   8   9
HETATM    9  C   UNL     1      -5.027  -2.146   0.024  1.00  0.00    -0.058 A 
HETATM   10  C   UNL     1      -5.065  -3.548   0.061  1.00  0.00     0.008 A 
HETATM   11  C   UNL     1      -6.285  -4.233   0.100  1.00  0.00     0.019 A 
HETATM   12  C   UNL     1      -7.482  -3.523   0.099  1.00  0.00     0.011 A 
HETATM   13 BR   UNL     1      -9.129  -4.451   0.151  1.00  0.00    -0.051 Br
HETATM   14  C   UNL     1      -7.470  -2.133   0.063  1.00  0.00     0.019 A 
HETATM   15  C   UNL     1      -6.249  -1.450   0.026  1.00  0.00     0.008 A 
ENDBRANCH   8   9
ENDBRANCH   7   8
ENDBRANCH   4   7
BRANCH   5  16
HETATM   16  O   UNL     1      -0.881  -1.018  -2.356  1.00  0.00    -0.357 OA
HETATM   17  H   UNL     1      -1.615  -1.652  -2.363  1.00  0.00     0.217 HD
ENDBRANCH   5  16
BRANCH   6  18
HETATM   18  O   UNL     1       1.274   0.500  -2.029  1.00  0.00    -0.356 OA
HETATM   19  H   UNL     1       0.758   0.137  -2.774  1.00  0.00     0.218 HD
ENDBRANCH   6  18
BRANCH   1  20
HETATM   20  O   UNL     1       2.214   1.156   0.483  1.00  0.00    -0.358 OA
HETATM   21  H   UNL     1       2.415   1.276   1.423  1.00  0.00     0.217 HD
ENDBRANCH   1  20
TORSDOF 6
