REMARK  4 active torsions:
REMARK  status: ('A' for Active; 'I' for Inactive)
REMARK    1  A    between atoms: C_2  and  C_3 
REMARK       I    between atoms: C_2  and  N_15 
REMARK    2  A    between atoms: C_3  and  C_4 
REMARK    3  A    between atoms: C_4  and  N_5 
REMARK    4  A    between atoms: N_15  and  O_16 
ROOT
HETATM    1  N   UNL     1       2.859   3.101   2.027  1.00  0.00    -0.380 N 
HETATM    2  C   UNL     1       4.134   2.911   2.714  1.00  0.00     0.123 C 
HETATM    3  C   UNL     1       5.121   3.960   2.226  1.00  0.00     0.024 C 
HETATM    4  C   UNL     1       4.602   5.354   2.556  1.00  0.00     0.042 C 
HETATM    5  C   UNL     1       3.113   5.494   2.359  1.00  0.00    -0.032 A 
HETATM    6  C   UNL     1       2.552   6.781   2.454  1.00  0.00     0.009 A 
HETATM    7  C   UNL     1       1.178   6.968   2.334  1.00  0.00     0.001 A 
HETATM    8  C   UNL     1       0.358   5.867   2.118  1.00  0.00     0.002 A 
HETATM    9  C   UNL     1       0.910   4.590   2.010  1.00  0.00     0.030 A 
HETATM   10  C   UNL     1       2.292   4.367   2.129  1.00  0.00     0.036 A 
ENDROOT
BRANCH   1  11
HETATM   11  C   UNL     1       2.137   1.927   1.523  1.00  0.00     0.132 C 
BRANCH  11  12
HETATM   12  C   UNL     1       2.003   2.004   0.002  1.00  0.00     0.124 C 
BRANCH  12  13
HETATM   13  C   UNL     1       1.272   0.811  -0.562  1.00  0.00     0.242 C 
HETATM   14  O   UNL     1       0.915  -0.163   0.095  1.00  0.00    -0.271 OA
HETATM   15  N   UNL     1       1.060   0.898  -1.917  1.00  0.00    -0.237 N 
HETATM   16  H   UNL     1       1.387   1.653  -2.510  1.00  0.00     0.197 HD
BRANCH  15  17
HETATM   17  O   UNL     1       0.465  -0.210  -2.556  1.00  0.00    -0.287 OA
HETATM   18  H   UNL     1       0.500  -0.903  -1.861  1.00  0.00     0.244 HD
ENDBRANCH  15  17
ENDBRANCH  12  13
ENDBRANCH  11  12
ENDBRANCH   1  11
TORSDOF 4
