REMARK  5 active torsions:
REMARK  status: ('A' for Active; 'I' for Inactive)
REMARK    1  A    between atoms: C_2  and  C_3 
REMARK       I    between atoms: C_2  and  N_13 
REMARK    2  A    between atoms: C_3  and  C_4 
REMARK    3  A    between atoms: C_4  and  N_5 
REMARK    4  A    between atoms: N_5  and  C_6 
REMARK    5  A    between atoms: N_13  and  O_14 
ROOT
HETATM    1  N   UNL     1       2.753   2.512  -2.753  1.00  0.00    -0.291 NA
HETATM    2  H   UNL     1       3.556   2.133  -3.260  1.00  0.00     0.127 HD
ENDROOT
BRANCH   1   3
HETATM    3  C   UNL     1       2.086   1.513  -1.910  1.00  0.00     0.102 C 
BRANCH   3   4
HETATM    4  C   UNL     1       3.086   0.806  -1.006  1.00  0.00     0.119 C 
BRANCH   4   5
HETATM    5  C   UNL     1       2.375  -0.237  -0.174  1.00  0.00     0.242 C 
HETATM    6  O   UNL     1       1.197  -0.558  -0.320  1.00  0.00    -0.271 OA
HETATM    7  N   UNL     1       3.171  -0.830   0.773  1.00  0.00    -0.237 N 
HETATM    8  H   UNL     1       4.178  -0.726   0.834  1.00  0.00     0.197 HD
BRANCH   7   9
HETATM    9  O   UNL     1       2.586  -1.883   1.511  1.00  0.00    -0.287 OA
HETATM   10  H   UNL     1       1.684  -1.938   1.126  1.00  0.00     0.244 HD
ENDBRANCH   7   9
ENDBRANCH   4   5
ENDBRANCH   3   4
ENDBRANCH   1   3
BRANCH   1  11
HETATM   11  C   UNL     1       1.925   3.207  -3.669  1.00  0.00     0.025 A 
HETATM   12  C   UNL     1       0.606   3.566  -3.347  1.00  0.00     0.025 A 
HETATM   13  C   UNL     1      -0.198   4.285  -4.237  1.00  0.00     0.002 A 
HETATM   14  C   UNL     1       0.313   4.700  -5.462  1.00  0.00     0.001 A 
HETATM   15  C   UNL     1       1.635   4.407  -5.788  1.00  0.00     0.021 A 
HETATM   16  C   UNL     1       2.435   3.680  -4.897  1.00  0.00     0.032 A 
HETATM   17 BR   UNL     1       4.227   3.316  -5.421  1.00  0.00    -0.049 Br
ENDBRANCH   1  11
TORSDOF 5
