REMARK  5 active torsions:
REMARK  status: ('A' for Active; 'I' for Inactive)
REMARK    1  A    between atoms: O_2  and  C_3 
REMARK    2  A    between atoms: C_8  and  N_9 
REMARK    3  A    between atoms: N_9  and  C_10 
REMARK    4  A    between atoms: C_10  and  C_11 
REMARK       I    between atoms: C_11  and  N_13 
REMARK    5  A    between atoms: N_13  and  O_14 
ROOT
HETATM    1  N   UNL     1       4.680   1.801   0.245  1.00  0.00    -0.282 NA
HETATM    2  H   UNL     1       5.327   2.517   0.582  1.00  0.00     0.128 HD
ENDROOT
BRANCH   1   3
HETATM    3  C   UNL     1       4.217   0.983   1.298  1.00  0.00     0.042 A 
HETATM    4  C   UNL     1       3.097   0.120   1.234  1.00  0.00     0.089 A 
HETATM    5  C   UNL     1       2.770  -0.683   2.342  1.00  0.00     0.038 A 
HETATM    6  C   UNL     1       3.544  -0.655   3.501  1.00  0.00     0.003 A 
HETATM    7  C   UNL     1       4.668   0.155   3.560  1.00  0.00     0.002 A 
HETATM    8  C   UNL     1       5.008   0.949   2.464  1.00  0.00     0.026 A 
BRANCH   4   9
HETATM    9  O   UNL     1       2.393   0.065   0.053  1.00  0.00    -0.354 OA
HETATM   10  C   UNL     1       1.053  -0.408   0.128  1.00  0.00     0.210 C 
ENDBRANCH   4   9
ENDBRANCH   1   3
BRANCH   1  11
HETATM   11  C   UNL     1       3.685   2.394  -0.655  1.00  0.00     0.197 C 
BRANCH  11  12
HETATM   12  C   UNL     1       4.202   3.722  -1.221  1.00  0.00     0.254 C 
HETATM   13  O   UNL     1       5.012   4.445  -0.641  1.00  0.00    -0.270 OA
HETATM   14  N   UNL     1       3.639   4.078  -2.428  1.00  0.00    -0.236 N 
HETATM   15  H   UNL     1       3.238   3.397  -3.065  1.00  0.00     0.197 HD
BRANCH  14  16
HETATM   16  O   UNL     1       4.132   5.268  -3.013  1.00  0.00    -0.287 OA
HETATM   17  H   UNL     1       4.750   5.604  -2.328  1.00  0.00     0.244 HD
ENDBRANCH  14  16
ENDBRANCH  11  12
ENDBRANCH   1  11
TORSDOF 5
