REMARK  3 active torsions:
REMARK  status: ('A' for Active; 'I' for Inactive)
REMARK    1  A    between atoms: O_1  and  C_2 
REMARK    2  A    between atoms: C_5  and  C_6 
REMARK    3  A    between atoms: C_11  and  O_12 
ROOT
HETATM    1  C   UNL     1      -3.640  -1.532   0.434  1.00  0.00     0.047 C 
HETATM    2  C   UNL     1      -4.219  -2.929   0.795  1.00  0.00     0.185 C 
HETATM    3  O   UNL     1      -5.437  -3.319   0.083  1.00  0.00    -0.350 OA
HETATM    4  C   UNL     1      -6.218  -2.249  -0.278  1.00  0.00     0.077 C 
HETATM    5  C   UNL     1      -7.591  -2.288  -0.094  1.00  0.00     0.073 C 
HETATM    6  C   UNL     1      -8.309  -1.098  -0.227  1.00  0.00     0.068 C 
HETATM    7  C   UNL     1      -7.676   0.100  -0.560  1.00  0.00     0.037 C 
HETATM    8  C   UNL     1      -6.321   0.100  -0.864  1.00  0.00     0.012 C 
HETATM    9  C   UNL     1      -5.607  -1.091  -0.764  1.00  0.00    -0.024 C 
HETATM   10  C   UNL     1      -4.133  -1.158  -0.961  1.00  0.00     0.052 C 
ENDROOT
BRANCH   1  11
HETATM   11  C   UNL     1      -2.165  -1.210   0.508  1.00  0.00    -0.051 A 
HETATM   12  C   UNL     1      -1.143  -2.143   0.322  1.00  0.00     0.010 A 
HETATM   13  C   UNL     1       0.186  -1.715   0.212  1.00  0.00     0.037 A 
HETATM   14  C   UNL     1       0.488  -0.356   0.274  1.00  0.00     0.065 A 
HETATM   15  C   UNL     1      -0.507   0.584   0.484  1.00  0.00     0.037 A 
HETATM   16  C   UNL     1      -1.823   0.157   0.613  1.00  0.00     0.010 A 
BRANCH  14  17
HETATM   17  O   UNL     1       1.758   0.108   0.112  1.00  0.00    -0.361 OA
HETATM   18  H   UNL     1       2.336  -0.642  -0.106  1.00  0.00     0.217 HD
ENDBRANCH  14  17
ENDBRANCH   1  11
BRANCH   6  19
HETATM   19  O   UNL     1      -9.652  -1.050  -0.001  1.00  0.00    -0.361 OA
HETATM   20  H   UNL     1      -9.978  -1.960   0.130  1.00  0.00     0.217 HD
ENDBRANCH   6  19
TORSDOF 3
