REMARK  6 active torsions:
REMARK  status: ('A' for Active; 'I' for Inactive)
REMARK    1  A    between atoms: C_3  and  O_4 
REMARK    2  A    between atoms: C_5  and  C_6 
REMARK    3  A    between atoms: C_9  and  O_10 
REMARK    4  A    between atoms: C_11  and  O_12 
REMARK    5  A    between atoms: C_17  and  O_18 
REMARK    6  A    between atoms: C_20  and  O_21 
ROOT
HETATM    1  O   UNL     1       2.018  -1.745   0.103  1.00  0.00    -0.284 OA
HETATM    2  C   UNL     1       1.526  -0.622   0.053  1.00  0.00     0.223 A 
HETATM    3  C   UNL     1       2.455   0.531  -0.007  1.00  0.00     0.152 A 
HETATM    4  C   UNL     1       1.950   1.774  -0.029  1.00  0.00     0.123 A 
HETATM    5  O   UNL     1       0.600   2.074   0.025  1.00  0.00    -0.306 OA
HETATM    6  C   UNL     1      -0.300   1.030   0.031  1.00  0.00     0.096 A 
HETATM    7  C   UNL     1      -1.653   1.381   0.021  1.00  0.00     0.075 A 
HETATM    8  C   UNL     1      -2.618   0.378  -0.002  1.00  0.00     0.071 A 
HETATM    9  C   UNL     1      -2.255  -0.965  -0.011  1.00  0.00     0.074 A 
HETATM   10  C   UNL     1      -0.904  -1.312   0.009  1.00  0.00     0.085 A 
HETATM   11  C   UNL     1       0.083  -0.316   0.034  1.00  0.00     0.084 A 
ENDROOT
BRANCH   4  12
HETATM   12  C   UNL     1       2.831   2.945  -0.161  1.00  0.00     0.004 A 
HETATM   13  C   UNL     1       3.368   3.579   0.972  1.00  0.00     0.017 A 
HETATM   14  C   UNL     1       4.272   4.642   0.834  1.00  0.00     0.040 A 
HETATM   15  C   UNL     1       4.634   5.064  -0.439  1.00  0.00     0.098 A 
HETATM   16  C   UNL     1       4.096   4.444  -1.564  1.00  0.00     0.099 A 
HETATM   17  C   UNL     1       3.196   3.394  -1.438  1.00  0.00     0.053 A 
BRANCH  15  18
HETATM   18  O   UNL     1       5.527   6.080  -0.641  1.00  0.00    -0.358 OA
HETATM   19  H   UNL     1       5.826   6.398   0.228  1.00  0.00     0.217 HD
ENDBRANCH  15  18
BRANCH  16  20
HETATM   20  O   UNL     1       4.468   4.855  -2.812  1.00  0.00    -0.358 OA
HETATM   21  H   UNL     1       5.130   5.557  -2.652  1.00  0.00     0.217 HD
ENDBRANCH  16  20
ENDBRANCH   4  12
BRANCH   3  22
HETATM   22  O   UNL     1       3.807   0.244  -0.054  1.00  0.00    -0.355 OA
HETATM   23  H   UNL     1       3.848  -0.737  -0.038  1.00  0.00     0.218 HD
ENDBRANCH   3  22
BRANCH  10  24
HETATM   24  O   UNL     1      -0.564  -2.635  -0.007  1.00  0.00    -0.360 OA
HETATM   25  H   UNL     1      -1.361  -3.188  -0.029  1.00  0.00     0.217 HD
ENDBRANCH  10  24
BRANCH   8  26
HETATM   26  O   UNL     1      -3.950   0.666  -0.024  1.00  0.00    -0.361 OA
HETATM   27  H   UNL     1      -4.070   1.630  -0.041  1.00  0.00     0.217 HD
ENDBRANCH   8  26
TORSDOF 6
