REMARK  8 active torsions:
REMARK  status: ('A' for Active; 'I' for Inactive)
REMARK    1  A    between atoms: C_2  and  C_3 
REMARK       I    between atoms: C_2  and  N_21 
REMARK    2  A    between atoms: C_3  and  C_4 
REMARK    3  A    between atoms: C_4  and  O_5 
REMARK    4  A    between atoms: C_4  and  C_6 
REMARK    5  A    between atoms: C_12  and  O_13 
REMARK    6  A    between atoms: O_13  and  C_14 
REMARK    7  A    between atoms: C_14  and  C_15 
REMARK    8  A    between atoms: N_21  and  O_22 
ROOT
HETATM    1  C   UNL     1       2.676   3.431  -1.286  1.00  0.00     0.006 A 
HETATM    2  C   UNL     1       3.889   3.338  -2.019  1.00  0.00     0.036 A 
HETATM    3  C   UNL     1       4.522   4.461  -2.550  1.00  0.00     0.034 A 
HETATM    4 CL   UNL     1       5.996   4.302  -3.419  1.00  0.00    -0.084 Cl
HETATM    5  C   UNL     1       3.951   5.709  -2.388  1.00  0.00     0.026 A 
HETATM    6  C   UNL     1       2.756   5.823  -1.679  1.00  0.00     0.039 A 
HETATM    7  C   UNL     1       2.125   4.711  -1.076  1.00  0.00     0.078 A 
ENDROOT
BRANCH   1   8
HETATM    8  C   UNL     1       2.100   2.088  -0.851  1.00  0.00     0.162 C 
BRANCH   8   9
HETATM    9  C   UNL     1       0.863   2.010   0.038  1.00  0.00     0.141 C 
BRANCH   9  10
HETATM   10  C   UNL     1       0.557   0.567   0.407  1.00  0.00     0.243 C 
HETATM   11  O   UNL     1       0.559   0.151   1.566  1.00  0.00    -0.271 OA
HETATM   12  N   UNL     1       0.233  -0.240  -0.664  1.00  0.00    -0.237 N 
HETATM   13  H   UNL     1       0.677  -0.040  -1.560  1.00  0.00     0.197 HD
BRANCH  12  14
HETATM   14  O   UNL     1       0.049  -1.613  -0.358  1.00  0.00    -0.287 OA
HETATM   15  H   UNL     1       0.144  -1.629   0.619  1.00  0.00     0.244 HD
ENDBRANCH  12  14
ENDBRANCH   9  10
ENDBRANCH   8   9
BRANCH   8  16
HETATM   16  O   UNL     1       1.797   1.358  -2.063  1.00  0.00    -0.390 OA
HETATM   17  H   UNL     1       1.554   2.013  -2.744  1.00  0.00     0.210 HD
ENDBRANCH   8  16
ENDBRANCH   1   8
BRANCH   7  18
HETATM   18  O   UNL     1       0.996   4.854  -0.287  1.00  0.00    -0.346 OA
BRANCH  18  19
HETATM   19  C   UNL     1       0.763   6.215   0.119  1.00  0.00     0.214 C 
BRANCH  19  20
HETATM   20  C   UNL     1      -0.241   6.458   1.219  1.00  0.00    -0.034 A 
HETATM   21  C   UNL     1       0.086   7.395   2.218  1.00  0.00     0.009 A 
HETATM   22  C   UNL     1      -0.866   7.834   3.135  1.00  0.00     0.001 A 
HETATM   23  C   UNL     1      -2.163   7.338   3.067  1.00  0.00     0.000 A 
HETATM   24  C   UNL     1      -2.498   6.396   2.094  1.00  0.00     0.001 A 
HETATM   25  C   UNL     1      -1.543   5.953   1.172  1.00  0.00     0.009 A 
ENDBRANCH  19  20
ENDBRANCH  18  19
ENDBRANCH   7  18
TORSDOF 8
