REMARK  5 active torsions:
REMARK  status: ('A' for Active; 'I' for Inactive)
REMARK    1  A    between atoms: C_4  and  C_5 
REMARK    2  A    between atoms: C_5  and  N_6 
REMARK    3  A    between atoms: C_7  and  O_8 
REMARK    4  A    between atoms: C_9  and  N_10 
REMARK    5  A    between atoms: N_11  and  C_12 
ROOT
HETATM    1  N   UNL     1       5.104   1.044   2.472  1.00  0.00    -0.322 N 
HETATM    2  C   UNL     1       5.005   2.386   2.795  1.00  0.00     0.175 A 
HETATM    3  C   UNL     1       5.462   2.512   4.093  1.00  0.00     0.142 A 
HETATM    4  C   UNL     1       5.841   1.233   4.577  1.00  0.00     0.026 A 
HETATM    5  C   UNL     1       6.354   0.753   5.804  1.00  0.00     0.016 A 
HETATM    6  C   UNL     1       6.627  -0.610   5.955  1.00  0.00     0.001 A 
HETATM    7  C   UNL     1       6.404  -1.495   4.907  1.00  0.00     0.002 A 
HETATM    8  C   UNL     1       5.902  -1.046   3.683  1.00  0.00     0.031 A 
HETATM    9  C   UNL     1       5.622   0.325   3.541  1.00  0.00     0.049 A 
ENDROOT
BRANCH   3  10
HETATM   10  N   UNL     1       5.511   3.670   4.886  1.00  0.00    -0.145 NA
HETATM   11  N   UNL     1       5.826   4.701   4.256  1.00  0.00    -0.150 NA
BRANCH  11  12
HETATM   12  C   UNL     1       5.839   5.847   5.077  1.00  0.00     0.079 A 
HETATM   13  C   UNL     1       6.261   5.830   6.418  1.00  0.00     0.033 A 
HETATM   14  C   UNL     1       6.279   7.002   7.180  1.00  0.00     0.002 A 
HETATM   15  C   UNL     1       5.889   8.210   6.610  1.00  0.00     0.000 A 
HETATM   16  C   UNL     1       5.480   8.247   5.277  1.00  0.00     0.002 A 
HETATM   17  C   UNL     1       5.458   7.074   4.521  1.00  0.00     0.033 A 
ENDBRANCH  11  12
ENDBRANCH   3  10
BRANCH   2  18
HETATM   18  O   UNL     1       4.523   3.313   1.966  1.00  0.00    -0.344 OA
HETATM   19  H   UNL     1       4.458   2.963   1.064  1.00  0.00     0.219 HD
ENDBRANCH   2  18
BRANCH   1  20
HETATM   20  C   UNL     1       4.667   0.430   1.221  1.00  0.00     0.159 C 
BRANCH  20  21
HETATM   21  C   UNL     1       5.766   0.410   0.195  1.00  0.00    -0.005 C 
HETATM   22  C   UNL     1       5.608   0.530  -1.139  1.00  0.00    -0.090 C 
HETATM   23  C   UNL     1       6.807   0.465  -2.046  1.00  0.00     0.042 C 
HETATM   24  C   UNL     1       4.261   0.682  -1.787  1.00  0.00     0.042 C 
ENDBRANCH  20  21
ENDBRANCH   1  20
TORSDOF 5
