REMARK  1 active torsions:
REMARK  status: ('A' for Active; 'I' for Inactive)
REMARK       I    between atoms: N_1  and  C_2 
REMARK       I    between atoms: C_2  and  N_4 
REMARK    1  A    between atoms: N_4  and  O_5 
ROOT
HETATM    1  N   UNL     1       1.106   0.081   0.016  1.00  0.00    -0.350 N 
HETATM    2  C   UNL     1       2.458   0.071   0.059  1.00  0.00     0.337 C 
HETATM    3  O   UNL     1       3.077  -0.171   1.089  1.00  0.00    -0.245 OA
HETATM    4  N   UNL     1       3.061   0.351  -1.127  1.00  0.00    -0.219 N 
HETATM    5  H   UNL     1       0.609  -0.120   0.873  1.00  0.00     0.160 HD
HETATM    6  H   UNL     1       0.580   0.279  -0.820  1.00  0.00     0.160 HD
HETATM    7  H   UNL     1       2.580   0.553  -1.992  1.00  0.00     0.199 HD
ENDROOT
BRANCH   4   8
HETATM    8  O   UNL     1       4.472   0.357  -1.149  1.00  0.00    -0.286 OA
HETATM    9  H   UNL     1       4.691   0.139  -0.217  1.00  0.00     0.244 HD
ENDBRANCH   4   8
TORSDOF 1
