REMARK  9 active torsions:
REMARK  status: ('A' for Active; 'I' for Inactive)
REMARK    1  A    between atoms: C_2  and  O_3 
REMARK    2  A    between atoms: C_2  and  C_4 
REMARK    3  A    between atoms: C_4  and  C_5 
REMARK    4  A    between atoms: C_4  and  C_10 
REMARK    5  A    between atoms: C_5  and  P_6 
REMARK    6  A    between atoms: P_6  and  O_8 
REMARK    7  A    between atoms: P_6  and  O_9 
REMARK    8  A    between atoms: C_13  and  O_14 
REMARK    9  A    between atoms: C_15  and  O_16 
ROOT
HETATM    1  C   UNL     1       3.014   1.269   0.068  1.00  0.00     0.127 C 
ENDROOT
BRANCH   1   2
HETATM    2  C   UNL     1       2.142   0.021   0.160  1.00  0.00     0.148 C 
HETATM    3  O   UNL     1       1.098  -0.010   0.798  1.00  0.00    -0.649 OA
BRANCH   2   4
HETATM    4  O   UNL     1       2.570  -1.057  -0.524  1.00  0.00    -0.776 OA
HETATM    5  H   UNL     1       3.410  -0.931  -1.014  1.00  0.00     0.167 HD
ENDBRANCH   2   4
ENDBRANCH   1   2
BRANCH   1   6
HETATM    6  C   UNL     1       2.627   2.226   1.216  1.00  0.00     0.145 C 
BRANCH   6   7
HETATM    7  P   UNL     1       2.724   1.348   2.818  1.00  0.00     0.236 P 
HETATM    8  O   UNL     1       4.147   1.854   3.062  1.00  0.00    -0.653 OA
BRANCH   7   9
HETATM    9  O   UNL     1       1.794   2.490   3.518  1.00  0.00    -0.329 OA
HETATM   10  H   UNL     1       2.330   3.184   3.937  1.00  0.00     0.220 HD
ENDBRANCH   7   9
BRANCH   7  11
HETATM   11  O   UNL     1       2.816   0.518   4.333  1.00  0.00    -0.329 OA
HETATM   12  H   UNL     1       3.647   0.838   4.739  1.00  0.00     0.220 HD
ENDBRANCH   7  11
ENDBRANCH   6   7
ENDBRANCH   1   6
BRANCH   1  13
HETATM   13  C   UNL     1       4.520   1.043   0.017  1.00  0.00    -0.041 A 
HETATM   14  C   UNL     1       5.162  -0.023   0.683  1.00  0.00     0.011 A 
HETATM   15  C   UNL     1       6.556  -0.157   0.654  1.00  0.00     0.040 A 
HETATM   16  C   UNL     1       7.316   0.780  -0.033  1.00  0.00     0.098 A 
HETATM   17  C   UNL     1       6.692   1.837  -0.688  1.00  0.00     0.099 A 
HETATM   18  C   UNL     1       5.313   1.976  -0.681  1.00  0.00     0.047 A 
BRANCH  16  19
HETATM   19  O   UNL     1       8.675   0.718  -0.084  1.00  0.00    -0.358 OA
HETATM   20  H   UNL     1       8.972  -0.012   0.492  1.00  0.00     0.217 HD
ENDBRANCH  16  19
BRANCH  17  21
HETATM   21  O   UNL     1       7.453   2.763  -1.345  1.00  0.00    -0.358 OA
HETATM   22  H   UNL     1       8.374   2.480  -1.188  1.00  0.00     0.217 HD
ENDBRANCH  17  21
ENDBRANCH   1  13
TORSDOF 9
