REMARK  15 active torsions:
REMARK  status: ('A' for Active; 'I' for Inactive)
REMARK    1  A    between atoms: C_2  and  O_3 
REMARK    2  A    between atoms: C_2  and  C_4 
REMARK    3  A    between atoms: C_4  and  C_5 
REMARK    4  A    between atoms: C_4  and  C_22 
REMARK    5  A    between atoms: C_5  and  P_6 
REMARK    6  A    between atoms: P_6  and  O_8 
REMARK    7  A    between atoms: P_6  and  C_9 
REMARK    8  A    between atoms: C_9  and  C_10 
REMARK    9  A    between atoms: C_10  and  C_11 
REMARK   10  A    between atoms: C_10  and  C_14 
REMARK   11  A    between atoms: C_11  and  O_13 
REMARK   12  A    between atoms: C_17  and  O_18 
REMARK   13  A    between atoms: C_19  and  O_20 
REMARK   14  A    between atoms: C_25  and  O_26 
REMARK   15  A    between atoms: C_27  and  O_28 
ROOT
HETATM    1  P   UNL     1       1.212   0.389   2.999  1.00  0.00     0.101 P 
HETATM    2  O   UNL     1       1.499   0.880   4.388  1.00  0.00    -0.674 OA
ENDROOT
BRANCH   1   3
HETATM    3  C   UNL     1       2.477  -0.671   2.323  1.00  0.00     0.114 C 
BRANCH   3   4
HETATM    4  C   UNL     1       3.772  -0.740   3.175  1.00  0.00     0.125 C 
BRANCH   4   5
HETATM    5  C   UNL     1       3.444  -1.422   4.504  1.00  0.00     0.148 C 
HETATM    6  O   UNL     1       2.379  -1.982   4.732  1.00  0.00    -0.649 OA
BRANCH   5   7
HETATM    7  O   UNL     1       4.470  -1.464   5.383  1.00  0.00    -0.776 OA
HETATM    8  H   UNL     1       5.272  -0.992   5.083  1.00  0.00     0.167 HD
ENDBRANCH   5   7
ENDBRANCH   4   5
BRANCH   4   9
HETATM    9  C   UNL     1       4.562   0.566   3.288  1.00  0.00    -0.041 A 
HETATM   10  C   UNL     1       4.406   1.461   4.367  1.00  0.00     0.011 A 
HETATM   11  C   UNL     1       5.168   2.634   4.482  1.00  0.00     0.040 A 
HETATM   12  C   UNL     1       6.115   2.918   3.515  1.00  0.00     0.098 A 
HETATM   13  C   UNL     1       6.287   2.054   2.438  1.00  0.00     0.099 A 
HETATM   14  C   UNL     1       5.521   0.895   2.309  1.00  0.00     0.047 A 
BRANCH  12  15
HETATM   15  O   UNL     1       6.909   4.028   3.583  1.00  0.00    -0.358 OA
HETATM   16  H   UNL     1       6.648   4.540   4.370  1.00  0.00     0.217 HD
ENDBRANCH  12  15
BRANCH  13  17
HETATM   17  O   UNL     1       7.233   2.338   1.496  1.00  0.00    -0.358 OA
HETATM   18  H   UNL     1       7.626   3.186   1.790  1.00  0.00     0.217 HD
ENDBRANCH  13  17
ENDBRANCH   4   9
ENDBRANCH   3   4
ENDBRANCH   1   3
BRANCH   1  19
HETATM   19  O   UNL     1       1.208   1.587   1.927  1.00  0.00    -0.349 OA
HETATM   20  H   UNL     1       0.702   1.479   1.095  1.00  0.00     0.217 HD
ENDBRANCH   1  19
BRANCH   1  21
HETATM   21  C   UNL     1      -0.494  -0.220   2.907  1.00  0.00     0.114 C 
BRANCH  21  22
HETATM   22  C   UNL     1      -1.253   0.260   4.171  1.00  0.00     0.125 C 
BRANCH  22  23
HETATM   23  C   UNL     1      -1.141   1.789   4.305  1.00  0.00     0.148 C 
HETATM   24  O   UNL     1      -1.692   2.584   3.557  1.00  0.00    -0.649 OA
BRANCH  23  25
HETATM   25  O   UNL     1      -0.393   2.188   5.359  1.00  0.00    -0.776 OA
HETATM   26  H   UNL     1       0.362   1.559   5.489  1.00  0.00     0.167 HD
ENDBRANCH  23  25
ENDBRANCH  22  23
BRANCH  22  27
HETATM   27  C   UNL     1      -2.720  -0.104   4.369  1.00  0.00    -0.041 A 
HETATM   28  C   UNL     1      -3.183  -0.235   5.700  1.00  0.00     0.011 A 
HETATM   29  C   UNL     1      -4.543  -0.362   5.995  1.00  0.00     0.040 A 
HETATM   30  C   UNL     1      -5.456  -0.365   4.954  1.00  0.00     0.098 A 
HETATM   31  C   UNL     1      -5.016  -0.249   3.636  1.00  0.00     0.099 A 
HETATM   32  C   UNL     1      -3.662  -0.115   3.332  1.00  0.00     0.047 A 
BRANCH  30  33
HETATM   33  O   UNL     1      -6.802  -0.454   5.178  1.00  0.00    -0.358 OA
HETATM   34  H   UNL     1      -6.947  -0.466   6.141  1.00  0.00     0.217 HD
ENDBRANCH  30  33
BRANCH  31  35
HETATM   35  O   UNL     1      -5.936  -0.229   2.624  1.00  0.00    -0.358 OA
HETATM   36  H   UNL     1      -6.799  -0.281   3.080  1.00  0.00     0.217 HD
ENDBRANCH  31  35
ENDBRANCH  22  27
ENDBRANCH  21  22
ENDBRANCH   1  21
TORSDOF 15
