REMARK  7 active torsions:
REMARK  status: ('A' for Active; 'I' for Inactive)
REMARK    1  A    between atoms: P_2  and  O_3 
REMARK    2  A    between atoms: P_2  and  O_4 
REMARK    3  A    between atoms: P_2  and  C_5 
REMARK    4  A    between atoms: C_5  and  C_6 
REMARK    5  A    between atoms: C_6  and  C_7 
REMARK    6  A    between atoms: C_10  and  O_11 
REMARK    7  A    between atoms: C_12  and  O_13 
ROOT
HETATM    1  C   UNL     1       6.463  -0.155  -1.369  1.00  0.00    -0.055 A 
HETATM    2  C   UNL     1       7.222   0.987  -1.674  1.00  0.00     0.010 A 
HETATM    3  C   UNL     1       8.621   0.937  -1.666  1.00  0.00     0.040 A 
HETATM    4  C   UNL     1       9.255  -0.258  -1.351  1.00  0.00     0.098 A 
HETATM    5  C   UNL     1       8.508  -1.391  -1.049  1.00  0.00     0.099 A 
HETATM    6  C   UNL     1       7.122  -1.353  -1.061  1.00  0.00     0.046 A 
ENDROOT
BRANCH   1   7
HETATM    7  C   UNL     1       4.957  -0.101  -1.387  1.00  0.00     0.050 C 
BRANCH   7   8
HETATM    8  C   UNL     1       4.346  -0.439  -0.033  1.00  0.00     0.129 C 
BRANCH   8   9
HETATM    9  P   UNL     1       4.874   0.703   1.296  1.00  0.00     0.236 P 
HETATM   10  O   UNL     1       5.321   1.669   2.421  1.00  0.00    -0.653 OA
BRANCH   9  11
HETATM   11  O   UNL     1       3.762  -0.016   2.267  1.00  0.00    -0.329 OA
HETATM   12  H   UNL     1       3.728   0.494   3.101  1.00  0.00     0.220 HD
ENDBRANCH   9  11
BRANCH   9  13
HETATM   13  O   UNL     1       3.860   1.829   0.661  1.00  0.00    -0.329 OA
HETATM   14  H   UNL     1       3.848   2.582   1.286  1.00  0.00     0.220 HD
ENDBRANCH   9  13
ENDBRANCH   8   9
ENDBRANCH   7   8
ENDBRANCH   1   7
BRANCH   5  15
HETATM   15  O   UNL     1       9.131  -2.564  -0.737  1.00  0.00    -0.358 OA
HETATM   16  H   UNL     1      10.084  -2.358  -0.800  1.00  0.00     0.217 HD
ENDBRANCH   5  15
BRANCH   4  17
HETATM   17  O   UNL     1      10.617  -0.371  -1.329  1.00  0.00    -0.358 OA
HETATM   18  H   UNL     1      10.995   0.488  -1.583  1.00  0.00     0.217 HD
ENDBRANCH   4  17
TORSDOF 7
