REMARK  15 active torsions:
REMARK  status: ('A' for Active; 'I' for Inactive)
REMARK    1  A    between atoms: O_2  and  C_3 
REMARK    2  A    between atoms: C_3  and  C_5 
REMARK    3  A    between atoms: C_5  and  C_6 
REMARK    4  A    between atoms: C_5  and  C_24 
REMARK    5  A    between atoms: C_6  and  P_7 
REMARK    6  A    between atoms: P_7  and  O_9 
REMARK    7  A    between atoms: P_7  and  C_10 
REMARK    8  A    between atoms: C_10  and  C_11 
REMARK    9  A    between atoms: C_11  and  C_12 
REMARK   10  A    between atoms: C_11  and  C_16 
REMARK   11  A    between atoms: C_12  and  O_14 
REMARK   12  A    between atoms: C_19  and  O_20 
REMARK   13  A    between atoms: C_21  and  O_22 
REMARK   14  A    between atoms: C_27  and  O_28 
REMARK   15  A    between atoms: C_29  and  O_30 
ROOT
HETATM    1  P   UNL     1       4.474   1.731  -0.265  1.00  0.00     0.101 P 
HETATM    2  O   UNL     1       3.358   0.702  -0.450  1.00  0.00    -0.674 OA
ENDROOT
BRANCH   1   3
HETATM    3  C   UNL     1       5.084   0.780   1.175  1.00  0.00     0.113 C 
BRANCH   3   4
HETATM    4  C   UNL     1       6.296  -0.154   0.893  1.00  0.00     0.127 C 
BRANCH   4   5
HETATM    5  C   UNL     1       7.511   0.603   0.378  1.00  0.00     0.267 C 
HETATM    6  O   UNL     1       7.428   1.638  -0.282  1.00  0.00    -0.265 OA
BRANCH   5   7
HETATM    7  O   UNL     1       8.667  -0.046   0.693  1.00  0.00    -0.326 OA
HETATM    8  C   UNL     1       9.900   0.475   0.169  1.00  0.00     0.213 C 
ENDBRANCH   5   7
ENDBRANCH   4   5
BRANCH   4   9
HETATM    9  C   UNL     1       5.920  -1.298  -0.030  1.00  0.00    -0.041 A 
HETATM   10  C   UNL     1       5.730  -1.084  -1.409  1.00  0.00     0.011 A 
HETATM   11  C   UNL     1       5.202  -2.086  -2.223  1.00  0.00     0.040 A 
HETATM   12  C   UNL     1       4.906  -3.321  -1.665  1.00  0.00     0.098 A 
HETATM   13  C   UNL     1       5.170  -3.565  -0.321  1.00  0.00     0.099 A 
HETATM   14  C   UNL     1       5.673  -2.572   0.498  1.00  0.00     0.047 A 
BRANCH  12  15
HETATM   15  O   UNL     1       4.333  -4.318  -2.402  1.00  0.00    -0.358 OA
HETATM   16  H   UNL     1       4.037  -3.925  -3.243  1.00  0.00     0.217 HD
ENDBRANCH  12  15
BRANCH  13  17
HETATM   17  O   UNL     1       4.892  -4.794   0.216  1.00  0.00    -0.358 OA
HETATM   18  H   UNL     1       4.497  -5.296  -0.528  1.00  0.00     0.217 HD
ENDBRANCH  13  17
ENDBRANCH   4   9
ENDBRANCH   3   4
ENDBRANCH   1   3
BRANCH   1  19
HETATM   19  O   UNL     1       3.918   2.872   0.784  1.00  0.00    -0.349 OA
HETATM   20  H   UNL     1       3.366   2.508   1.511  1.00  0.00     0.217 HD
ENDBRANCH   1  19
BRANCH   1  21
HETATM   21  C   UNL     1       3.864   2.682  -1.704  1.00  0.00     0.113 C 
BRANCH  21  22
HETATM   22  C   UNL     1       2.317   2.863  -1.762  1.00  0.00     0.127 C 
BRANCH  22  23
HETATM   23  C   UNL     1       1.738   3.542  -0.516  1.00  0.00     0.267 C 
HETATM   24  O   UNL     1       0.965   3.009   0.269  1.00  0.00    -0.265 OA
BRANCH  23  25
HETATM   25  O   UNL     1       2.192   4.830  -0.400  1.00  0.00    -0.326 OA
HETATM   26  C   UNL     1       1.741   5.554   0.747  1.00  0.00     0.213 C 
ENDBRANCH  23  25
ENDBRANCH  22  23
BRANCH  22  27
HETATM   27  C   UNL     1       1.797   3.552  -3.019  1.00  0.00    -0.041 A 
HETATM   28  C   UNL     1       2.530   4.550  -3.682  1.00  0.00     0.011 A 
HETATM   29  C   UNL     1       1.998   5.218  -4.785  1.00  0.00     0.040 A 
HETATM   30  C   UNL     1       0.718   4.899  -5.222  1.00  0.00     0.098 A 
HETATM   31  C   UNL     1      -0.022   3.917  -4.570  1.00  0.00     0.099 A 
HETATM   32  C   UNL     1       0.504   3.239  -3.480  1.00  0.00     0.047 A 
BRANCH  30  33
HETATM   33  O   UNL     1       0.137   5.539  -6.280  1.00  0.00    -0.358 OA
HETATM   34  H   UNL     1       0.766   6.204  -6.609  1.00  0.00     0.217 HD
ENDBRANCH  30  33
BRANCH  31  35
HETATM   35  O   UNL     1      -1.288   3.629  -4.990  1.00  0.00    -0.358 OA
HETATM   36  H   UNL     1      -1.447   4.250  -5.728  1.00  0.00     0.217 HD
ENDBRANCH  31  35
ENDBRANCH  22  27
ENDBRANCH  21  22
ENDBRANCH   1  21
TORSDOF 15
