REMARK  9 active torsions:
REMARK  status: ('A' for Active; 'I' for Inactive)
REMARK    1  A    between atoms: C_2  and  O_3 
REMARK    2  A    between atoms: C_2  and  C_4 
REMARK    3  A    between atoms: C_4  and  C_5 
REMARK    4  A    between atoms: C_4  and  C_10 
REMARK    5  A    between atoms: C_5  and  P_6 
REMARK    6  A    between atoms: P_6  and  O_8 
REMARK    7  A    between atoms: P_6  and  O_9 
REMARK    8  A    between atoms: C_12  and  O_13 
REMARK    9  A    between atoms: C_14  and  O_15 
ROOT
HETATM    1  C   UNL     1       3.037  -0.858   0.807  1.00  0.00     0.129 C 
ENDROOT
BRANCH   1   2
HETATM    2  C   UNL     1       2.240   0.062  -0.112  1.00  0.00     0.149 C 
HETATM    3  O   UNL     1       1.329  -0.297  -0.837  1.00  0.00    -0.649 OA
BRANCH   2   4
HETATM    4  O   UNL     1       2.631   1.360  -0.063  1.00  0.00    -0.776 OA
HETATM    5  H   UNL     1       3.396   1.545   0.519  1.00  0.00     0.167 HD
ENDBRANCH   2   4
ENDBRANCH   1   2
BRANCH   1   6
HETATM    6  C   UNL     1       2.609  -2.321   0.636  1.00  0.00     0.145 C 
BRANCH   6   7
HETATM    7  P   UNL     1       1.155  -2.935   1.438  1.00  0.00     0.236 P 
HETATM    8  O   UNL     1       1.026  -4.427   1.484  1.00  0.00    -0.653 OA
BRANCH   7   9
HETATM    9  O   UNL     1       1.066  -2.277   2.894  1.00  0.00    -0.329 OA
HETATM   10  H   UNL     1       0.822  -1.333   2.897  1.00  0.00     0.220 HD
ENDBRANCH   7   9
BRANCH   7  11
HETATM   11  O   UNL     1      -0.173  -2.311   0.813  1.00  0.00    -0.329 OA
HETATM   12  H   UNL     1      -0.956  -2.845   1.060  1.00  0.00     0.220 HD
ENDBRANCH   7  11
ENDBRANCH   6   7
ENDBRANCH   1   6
BRANCH   1  13
HETATM   13  C   UNL     1       4.561  -0.760   0.590  1.00  0.00    -0.023 A 
HETATM   14  C   UNL     1       5.084  -0.516  -0.702  1.00  0.00     0.049 A 
HETATM   15  C   UNL     1       6.460  -0.532  -0.922  1.00  0.00     0.099 A 
HETATM   16  C   UNL     1       7.338  -0.802   0.121  1.00  0.00     0.100 A 
HETATM   17  C   UNL     1       6.860  -1.037   1.399  1.00  0.00     0.059 A 
HETATM   18  C   UNL     1       5.482  -1.011   1.637  1.00  0.00     0.021 A 
HETATM   19 BR   UNL     1       4.926  -1.358   3.422  1.00  0.00    -0.050 Br
BRANCH  15  20
HETATM   20  O   UNL     1       7.001  -0.300  -2.156  1.00  0.00    -0.358 OA
HETATM   21  H   UNL     1       6.283  -0.129  -2.791  1.00  0.00     0.217 HD
ENDBRANCH  15  20
BRANCH  16  22
HETATM   22  O   UNL     1       8.681  -0.855  -0.109  1.00  0.00    -0.358 OA
HETATM   23  H   UNL     1       8.781  -0.716  -1.074  1.00  0.00     0.217 HD
ENDBRANCH  16  22
ENDBRANCH   1  13
TORSDOF 9
