REMARK  12 active torsions:
REMARK  status: ('A' for Active; 'I' for Inactive)
REMARK    1  A    between atoms: C_2  and  O_3 
REMARK    2  A    between atoms: C_2  and  C_4 
REMARK    3  A    between atoms: C_4  and  C_5 
REMARK    4  A    between atoms: C_5  and  P_6 
REMARK    5  A    between atoms: P_6  and  O_8 
REMARK    6  A    between atoms: P_6  and  C_9 
REMARK    7  A    between atoms: C_9  and  C_10 
REMARK    8  A    between atoms: C_10  and  C_11 
REMARK    9  A    between atoms: C_10  and  C_14 
REMARK   10  A    between atoms: C_11  and  O_13 
REMARK   11  A    between atoms: C_17  and  O_18 
REMARK   12  A    between atoms: C_19  and  O_20 
ROOT
HETATM    1  C   UNL     1       7.417  -2.976  -3.117  1.00  0.00     0.125 C 
ENDROOT
BRANCH   1   2
HETATM    2  C   UNL     1       6.271  -1.978  -3.365  1.00  0.00     0.114 C 
BRANCH   2   3
HETATM    3  P   UNL     1       5.050  -1.598  -2.115  1.00  0.00     0.100 P 
HETATM    4  O   UNL     1       4.457  -2.793  -1.437  1.00  0.00    -0.674 OA
BRANCH   3   5
HETATM    5  C   UNL     1       5.032  -0.143  -1.081  1.00  0.00     0.104 C 
BRANCH   5   6
HETATM    6  C   UNL     1       6.044   0.127   0.020  1.00  0.00     0.119 C 
BRANCH   6   7
HETATM    7  C   UNL     1       7.160   0.994  -0.490  1.00  0.00     0.139 C 
HETATM    8  O   UNL     1       7.606   0.899  -1.631  1.00  0.00    -0.650 OA
BRANCH   7   9
HETATM    9  O   UNL     1       7.640   1.869   0.417  1.00  0.00    -0.776 OA
HETATM   10  H   UNL     1       7.218   1.844   1.297  1.00  0.00     0.167 HD
ENDBRANCH   7   9
ENDBRANCH   6   7
ENDBRANCH   5   6
ENDBRANCH   3   5
BRANCH   3  11
HETATM   11  O   UNL     1       3.878  -1.104  -3.142  1.00  0.00    -0.349 OA
HETATM   12  H   UNL     1       2.987  -1.232  -2.764  1.00  0.00     0.217 HD
ENDBRANCH   3  11
ENDBRANCH   2   3
ENDBRANCH   1   2
BRANCH   1  13
HETATM   13  C   UNL     1       7.011  -4.073  -2.144  1.00  0.00     0.148 C 
HETATM   14  O   UNL     1       7.095  -3.917  -0.935  1.00  0.00    -0.649 OA
BRANCH  13  15
HETATM   15  O   UNL     1       6.567  -5.230  -2.683  1.00  0.00    -0.776 OA
HETATM   16  H   UNL     1       6.606  -5.278  -3.659  1.00  0.00     0.167 HD
ENDBRANCH  13  15
ENDBRANCH   1  13
BRANCH   1  17
HETATM   17  C   UNL     1       8.107  -3.552  -4.374  1.00  0.00    -0.041 A 
HETATM   18  C   UNL     1       7.457  -3.740  -5.613  1.00  0.00     0.011 A 
HETATM   19  C   UNL     1       8.117  -4.329  -6.706  1.00  0.00     0.040 A 
HETATM   20  C   UNL     1       9.436  -4.736  -6.571  1.00  0.00     0.098 A 
HETATM   21  C   UNL     1      10.089  -4.572  -5.356  1.00  0.00     0.099 A 
HETATM   22  C   UNL     1       9.440  -4.000  -4.264  1.00  0.00     0.047 A 
BRANCH  20  23
HETATM   23  O   UNL     1      10.133  -5.308  -7.598  1.00  0.00    -0.358 OA
HETATM   24  H   UNL     1       9.557  -5.351  -8.380  1.00  0.00     0.217 HD
ENDBRANCH  20  23
BRANCH  21  25
HETATM   25  O   UNL     1      11.386  -4.978  -5.225  1.00  0.00    -0.358 OA
HETATM   26  H   UNL     1      11.629  -5.325  -6.108  1.00  0.00     0.217 HD
ENDBRANCH  21  25
ENDBRANCH   1  17
TORSDOF 12
