REMARK  9 active torsions:
REMARK  status: ('A' for Active; 'I' for Inactive)
REMARK    1  A    between atoms: O_2  and  C_3 
REMARK    2  A    between atoms: C_3  and  C_5 
REMARK    3  A    between atoms: C_5  and  C_6 
REMARK    4  A    between atoms: C_5  and  C_11 
REMARK    5  A    between atoms: C_6  and  P_7 
REMARK    6  A    between atoms: P_7  and  O_9 
REMARK    7  A    between atoms: P_7  and  O_10 
REMARK    8  A    between atoms: C_14  and  O_15 
REMARK    9  A    between atoms: C_16  and  O_17 
ROOT
HETATM    1  C   UNL     1       4.588   0.842  -0.942  1.00  0.00     0.129 C 
ENDROOT
BRANCH   1   2
HETATM    2  C   UNL     1       3.063   0.764  -0.910  1.00  0.00     0.267 C 
HETATM    3  O   UNL     1       2.399  -0.155  -1.375  1.00  0.00    -0.265 OA
BRANCH   2   4
HETATM    4  O   UNL     1       2.519   1.899  -0.375  1.00  0.00    -0.326 OA
HETATM    5  C   UNL     1       1.106   2.011  -0.565  1.00  0.00     0.213 C 
ENDBRANCH   2   4
ENDBRANCH   1   2
BRANCH   1   6
HETATM    6  C   UNL     1       5.158  -0.489  -1.454  1.00  0.00     0.144 C 
BRANCH   6   7
HETATM    7  P   UNL     1       5.266  -1.853  -0.324  1.00  0.00     0.236 P 
HETATM    8  O   UNL     1       5.975  -3.069  -0.809  1.00  0.00    -0.653 OA
BRANCH   7   9
HETATM    9  O   UNL     1       6.011  -1.269   0.973  1.00  0.00    -0.329 OA
HETATM   10  H   UNL     1       6.460  -1.976   1.475  1.00  0.00     0.220 HD
ENDBRANCH   7   9
BRANCH   7  11
HETATM   11  O   UNL     1       3.840  -2.228   0.293  1.00  0.00    -0.329 OA
HETATM   12  H   UNL     1       3.830  -3.109   0.717  1.00  0.00     0.220 HD
ENDBRANCH   7  11
ENDBRANCH   6   7
ENDBRANCH   1   6
BRANCH   1  13
HETATM   13  C   UNL     1       5.132   2.023  -1.776  1.00  0.00    -0.041 A 
HETATM   14  C   UNL     1       4.317   2.825  -2.603  1.00  0.00     0.011 A 
HETATM   15  C   UNL     1       4.829   3.939  -3.285  1.00  0.00     0.040 A 
HETATM   16  C   UNL     1       6.177   4.240  -3.179  1.00  0.00     0.098 A 
HETATM   17  C   UNL     1       7.008   3.436  -2.408  1.00  0.00     0.099 A 
HETATM   18  C   UNL     1       6.503   2.346  -1.703  1.00  0.00     0.047 A 
BRANCH  16  19
HETATM   19  O   UNL     1       6.732   5.318  -3.809  1.00  0.00    -0.358 OA
HETATM   20  H   UNL     1       6.017   5.821  -4.236  1.00  0.00     0.217 HD
ENDBRANCH  16  19
BRANCH  17  21
HETATM   21  O   UNL     1       8.342   3.723  -2.331  1.00  0.00    -0.358 OA
HETATM   22  H   UNL     1       8.455   4.511  -2.901  1.00  0.00     0.217 HD
ENDBRANCH  17  21
ENDBRANCH   1  13
TORSDOF 9
