REMARK  8 active torsions:
REMARK  status: ('A' for Active; 'I' for Inactive)
REMARK    1  A    between atoms: C_2  and  O_3 
REMARK    2  A    between atoms: C_2  and  C_4 
REMARK    3  A    between atoms: C_4  and  C_5 
REMARK    4  A    between atoms: C_4  and  C_9 
REMARK    5  A    between atoms: C_5  and  P_6 
REMARK    6  A    between atoms: P_6  and  O_8 
REMARK    7  A    between atoms: C_12  and  O_13 
REMARK    8  A    between atoms: C_14  and  O_15 
ROOT
HETATM    1  C   UNL     1       4.489   0.418   0.852  1.00  0.00    -0.041 A 
HETATM    2  C   UNL     1       5.110  -0.471  -0.052  1.00  0.00     0.011 A 
HETATM    3  C   UNL     1       6.503  -0.490  -0.194  1.00  0.00     0.040 A 
HETATM    4  C   UNL     1       7.278   0.372   0.570  1.00  0.00     0.098 A 
HETATM    5  C   UNL     1       6.675   1.244   1.469  1.00  0.00     0.099 A 
HETATM    6  C   UNL     1       5.295   1.272   1.617  1.00  0.00     0.047 A 
ENDROOT
BRANCH   1   7
HETATM    7  C   UNL     1       2.982   0.449   1.063  1.00  0.00     0.125 C 
BRANCH   7   8
HETATM    8  C   UNL     1       2.147   0.152  -0.185  1.00  0.00     0.148 C 
HETATM    9  O   UNL     1       1.210  -0.628  -0.217  1.00  0.00    -0.649 OA
BRANCH   8  10
HETATM   10  O   UNL     1       2.495   0.889  -1.263  1.00  0.00    -0.776 OA
HETATM   11  H   UNL     1       3.257   1.484  -1.111  1.00  0.00     0.167 HD
ENDBRANCH   8  10
ENDBRANCH   7   8
BRANCH   7  12
HETATM   12  C   UNL     1       2.512  -0.330   2.295  1.00  0.00     0.116 C 
BRANCH  12  13
HETATM   13  P   UNL     1       2.547  -2.178   2.207  1.00  0.00     0.205 P 
HETATM   14  O   UNL     1       3.973  -2.437   2.319  1.00  0.00    -0.179 OA
BRANCH  13  15
HETATM   15  O   UNL     1       2.195  -2.488   3.751  1.00  0.00    -0.348 OA
HETATM   16  H   UNL     1       2.365  -3.440   3.894  1.00  0.00     0.217 HD
ENDBRANCH  13  15
ENDBRANCH  12  13
ENDBRANCH   7  12
ENDBRANCH   1   7
BRANCH   5  17
HETATM   17  O   UNL     1       7.440   2.079   2.231  1.00  0.00    -0.358 OA
HETATM   18  H   UNL     1       8.361   1.847   1.996  1.00  0.00     0.217 HD
ENDBRANCH   5  17
BRANCH   4  19
HETATM   19  O   UNL     1       8.641   0.397   0.476  1.00  0.00    -0.358 OA
HETATM   20  H   UNL     1       8.910  -0.282  -0.167  1.00  0.00     0.217 HD
ENDBRANCH   4  19
TORSDOF 8
