REMARK  12 active torsions:
REMARK  status: ('A' for Active; 'I' for Inactive)
REMARK    1  A    between atoms: O_2  and  C_3 
REMARK    2  A    between atoms: C_3  and  C_5 
REMARK    3  A    between atoms: C_5  and  C_6 
REMARK    4  A    between atoms: C_6  and  P_7 
REMARK    5  A    between atoms: P_7  and  O_9 
REMARK    6  A    between atoms: P_7  and  C_10 
REMARK    7  A    between atoms: C_10  and  C_11 
REMARK    8  A    between atoms: C_11  and  C_12 
REMARK    9  A    between atoms: C_11  and  C_16 
REMARK   10  A    between atoms: C_12  and  O_14 
REMARK   11  A    between atoms: C_19  and  O_20 
REMARK   12  A    between atoms: C_21  and  O_22 
ROOT
HETATM    1  C   UNL     1       9.494   2.720  -0.079  1.00  0.00     0.127 C 
ENDROOT
BRANCH   1   2
HETATM    2  C   UNL     1       8.583   2.350  -1.307  1.00  0.00     0.113 C 
BRANCH   2   3
HETATM    3  P   UNL     1       6.873   2.604  -0.786  1.00  0.00     0.100 P 
HETATM    4  O   UNL     1       6.726   3.842   0.055  1.00  0.00    -0.674 OA
BRANCH   3   5
HETATM    5  C   UNL     1       5.363   2.351  -1.683  1.00  0.00     0.104 C 
BRANCH   5   6
HETATM    6  C   UNL     1       4.988   3.115  -2.932  1.00  0.00     0.120 C 
BRANCH   6   7
HETATM    7  C   UNL     1       5.419   2.335  -4.134  1.00  0.00     0.258 C 
HETATM    8  O   UNL     1       6.258   1.454  -4.118  1.00  0.00    -0.265 OA
BRANCH   7   9
HETATM    9  O   UNL     1       4.714   2.738  -5.234  1.00  0.00    -0.326 OA
HETATM   10  C   UNL     1       4.999   1.982  -6.402  1.00  0.00     0.213 C 
ENDBRANCH   7   9
ENDBRANCH   6   7
ENDBRANCH   5   6
ENDBRANCH   3   5
BRANCH   3  11
HETATM   11  O   UNL     1       6.745   1.267   0.125  1.00  0.00    -0.349 OA
HETATM   12  H   UNL     1       5.875   1.112   0.534  1.00  0.00     0.217 HD
ENDBRANCH   3  11
ENDBRANCH   2   3
ENDBRANCH   1   2
BRANCH   1  13
HETATM   13  C   UNL     1       9.159   1.897   1.173  1.00  0.00     0.267 C 
HETATM   14  O   UNL     1       8.553   2.345   2.139  1.00  0.00    -0.265 OA
BRANCH  13  15
HETATM   15  O   UNL     1       9.604   0.608   1.081  1.00  0.00    -0.326 OA
HETATM   16  C   UNL     1       9.255  -0.222   2.194  1.00  0.00     0.213 C 
ENDBRANCH  13  15
ENDBRANCH   1  13
BRANCH   1  17
HETATM   17  C   UNL     1      11.003   2.852  -0.273  1.00  0.00    -0.041 A 
HETATM   18  C   UNL     1      11.825   1.788  -0.675  1.00  0.00     0.011 A 
HETATM   19  C   UNL     1      13.223   1.930  -0.721  1.00  0.00     0.040 A 
HETATM   20  C   UNL     1      13.801   3.152  -0.371  1.00  0.00     0.098 A 
HETATM   21  C   UNL     1      13.003   4.204   0.038  1.00  0.00     0.099 A 
HETATM   22  C   UNL     1      11.620   4.065   0.099  1.00  0.00     0.047 A 
BRANCH  20  23
HETATM   23  O   UNL     1      15.155   3.351  -0.387  1.00  0.00    -0.358 OA
HETATM   24  H   UNL     1      15.571   2.526  -0.699  1.00  0.00     0.217 HD
ENDBRANCH  20  23
BRANCH  21  25
HETATM   25  O   UNL     1      13.569   5.390   0.415  1.00  0.00    -0.358 OA
HETATM   26  H   UNL     1      14.530   5.241   0.313  1.00  0.00     0.217 HD
ENDBRANCH  21  25
ENDBRANCH   1  17
TORSDOF 12
