REMARK  6 active torsions:
REMARK  status: ('A' for Active; 'I' for Inactive)
REMARK    1  A    between atoms: C_4  and  O_5 
REMARK    2  A    between atoms: C_7  and  O_8 
REMARK    3  A    between atoms: C_12  and  C_13 
REMARK    4  A    between atoms: C_16  and  O_17 
REMARK    5  A    between atoms: C_18  and  O_19 
REMARK    6  A    between atoms: C_21  and  O_22 
ROOT
HETATM    1  O   UNL     1       1.075  -0.143   0.105  1.00  0.00    -0.289 OA
HETATM    2  C   UNL     1       2.303  -0.079   0.034  1.00  0.00     0.196 C 
HETATM    3  C   UNL     1       3.084  -1.294  -0.230  1.00  0.00     0.079 A 
HETATM    4  C   UNL     1       2.508  -2.563  -0.098  1.00  0.00     0.085 A 
HETATM    5  C   UNL     1       3.276  -3.705  -0.299  1.00  0.00     0.074 A 
HETATM    6  C   UNL     1       4.619  -3.564  -0.638  1.00  0.00     0.071 A 
HETATM    7  C   UNL     1       5.200  -2.301  -0.783  1.00  0.00     0.074 A 
HETATM    8  C   UNL     1       4.428  -1.155  -0.588  1.00  0.00     0.089 A 
HETATM    9  O   UNL     1       5.062   0.058  -0.738  1.00  0.00    -0.337 OA
HETATM   10  C   UNL     1       4.164   1.177  -0.901  1.00  0.00     0.198 C 
HETATM   11  C   UNL     1       3.107   1.193   0.214  1.00  0.00     0.227 C 
ENDROOT
BRANCH  10  12
HETATM   12  C   UNL     1       4.958   2.476  -0.917  1.00  0.00    -0.023 A 
HETATM   13  C   UNL     1       5.756   2.868   0.175  1.00  0.00     0.013 A 
HETATM   14  C   UNL     1       6.380   4.122   0.199  1.00  0.00     0.040 A 
HETATM   15  C   UNL     1       6.216   4.984  -0.878  1.00  0.00     0.098 A 
HETATM   16  C   UNL     1       5.445   4.600  -1.970  1.00  0.00     0.099 A 
HETATM   17  C   UNL     1       4.820   3.361  -2.002  1.00  0.00     0.049 A 
BRANCH  15  18
HETATM   18  O   UNL     1       6.786   6.227  -0.907  1.00  0.00    -0.358 OA
HETATM   19  H   UNL     1       7.280   6.353  -0.079  1.00  0.00     0.217 HD
ENDBRANCH  15  18
BRANCH  16  20
HETATM   20  O   UNL     1       5.279   5.456  -3.022  1.00  0.00    -0.358 OA
HETATM   21  H   UNL     1       5.788   6.253  -2.771  1.00  0.00     0.217 HD
ENDBRANCH  16  20
ENDBRANCH  10  12
BRANCH  11  22
HETATM   22  O   UNL     1       2.268   2.343   0.189  1.00  0.00    -0.385 OA
HETATM   23  H   UNL     1       1.729   2.313  -0.621  1.00  0.00     0.210 HD
ENDBRANCH  11  22
BRANCH   4  24
HETATM   24  O   UNL     1       1.198  -2.757   0.244  1.00  0.00    -0.360 OA
HETATM   25  H   UNL     1       0.753  -1.880   0.291  1.00  0.00     0.217 HD
ENDBRANCH   4  24
BRANCH   6  26
HETATM   26  O   UNL     1       5.408  -4.658  -0.840  1.00  0.00    -0.361 OA
HETATM   27  H   UNL     1       4.874  -5.460  -0.709  1.00  0.00     0.217 HD
ENDBRANCH   6  26
TORSDOF 6
