REMARK  4 active torsions:
REMARK  status: ('A' for Active; 'I' for Inactive)
REMARK    1  A    between atoms: O_1  and  C_2 
REMARK    2  A    between atoms: C_5  and  C_6 
REMARK    3  A    between atoms: C_13  and  O_14 
REMARK    4  A    between atoms: C_15  and  O_16 
ROOT
HETATM    1  C   UNL     1      -3.358   0.157  -0.083  1.00  0.00    -0.021 A 
HETATM    2  C   UNL     1      -3.956   1.360  -0.140  1.00  0.00     0.150 A 
HETATM    3  O   UNL     1      -5.310   1.591  -0.152  1.00  0.00    -0.319 OA
HETATM    4  C   UNL     1      -6.159   0.512  -0.110  1.00  0.00     0.117 A 
HETATM    5  C   UNL     1      -5.691  -0.807  -0.081  1.00  0.00    -0.017 A 
HETATM    6  C   UNL     1      -6.618  -1.865  -0.069  1.00  0.00     0.013 A 
HETATM    7  C   UNL     1      -7.994  -1.609  -0.076  1.00  0.00     0.040 A 
HETATM    8  C   UNL     1      -8.439  -0.292  -0.090  1.00  0.00     0.101 A 
HETATM    9  C   UNL     1      -7.529   0.763  -0.106  1.00  0.00     0.133 A 
HETATM   10  C   UNL     1      -4.208  -1.089  -0.075  1.00  0.00     0.083 A 
ENDROOT
BRANCH   1  11
HETATM   11  C   UNL     1      -1.877   0.039  -0.049  1.00  0.00    -0.028 A 
HETATM   12  C   UNL     1      -1.084   1.032   0.558  1.00  0.00     0.015 A 
HETATM   13  C   UNL     1       0.311   0.933   0.598  1.00  0.00     0.037 A 
HETATM   14  C   UNL     1       0.932  -0.176   0.041  1.00  0.00     0.065 A 
HETATM   15  C   UNL     1       0.179  -1.179  -0.553  1.00  0.00     0.037 A 
HETATM   16  C   UNL     1      -1.217  -1.074  -0.595  1.00  0.00     0.015 A 
BRANCH  14  17
HETATM   17  O   UNL     1       2.286  -0.319   0.060  1.00  0.00    -0.361 OA
HETATM   18  H   UNL     1       2.672   0.449   0.512  1.00  0.00     0.217 HD
ENDBRANCH  14  17
ENDBRANCH   1  11
BRANCH   9  19
HETATM   19  O   UNL     1      -8.007   2.048  -0.117  1.00  0.00    -0.356 OA
HETATM   20  H   UNL     1      -8.978   1.950  -0.099  1.00  0.00     0.218 HD
ENDBRANCH   9  19
BRANCH   8  21
HETATM   21  O   UNL     1      -9.772   0.019  -0.091  1.00  0.00    -0.358 OA
HETATM   22  H   UNL     1     -10.279  -0.811  -0.090  1.00  0.00     0.217 HD
ENDBRANCH   8  21
TORSDOF 4
