REMARK  3 active torsions:
REMARK  status: ('A' for Active; 'I' for Inactive)
REMARK    1  A    between atoms: O_2  and  C_3 
REMARK    2  A    between atoms: C_6  and  C_7 
REMARK    3  A    between atoms: C_12  and  O_13 
ROOT
HETATM    1  C   UNL     1       4.776   4.515  -3.506  1.00  0.00     0.047 C 
HETATM    2  C   UNL     1       4.887   6.039  -3.222  1.00  0.00     0.185 C 
HETATM    3  O   UNL     1       4.356   6.924  -4.245  1.00  0.00    -0.350 OA
HETATM    4  C   UNL     1       4.609   6.477  -5.516  1.00  0.00     0.077 A 
HETATM    5  C   UNL     1       4.998   7.364  -6.508  1.00  0.00     0.073 A 
HETATM    6  C   UNL     1       5.353   6.852  -7.756  1.00  0.00     0.068 A 
HETATM    7  C   UNL     1       5.317   5.485  -8.018  1.00  0.00     0.037 A 
HETATM    8  C   UNL     1       4.834   4.616  -7.048  1.00  0.00     0.012 A 
HETATM    9  C   UNL     1       4.456   5.127  -5.809  1.00  0.00    -0.024 A 
HETATM   10  C   UNL     1       3.889   4.275  -4.727  1.00  0.00     0.052 C 
ENDROOT
BRANCH   1  11
HETATM   11  C   UNL     1       4.295   3.551  -2.433  1.00  0.00    -0.051 A 
HETATM   12  C   UNL     1       3.397   3.888  -1.416  1.00  0.00     0.010 A 
HETATM   13  C   UNL     1       2.794   2.888  -0.635  1.00  0.00     0.037 A 
HETATM   14  C   UNL     1       3.085   1.542  -0.862  1.00  0.00     0.068 A 
HETATM   15  C   UNL     1       4.013   1.202  -1.843  1.00  0.00     0.037 A 
HETATM   16  C   UNL     1       4.621   2.192  -2.609  1.00  0.00     0.010 A 
BRANCH  14  17
HETATM   17  O   UNL     1       2.541   0.470  -0.215  1.00  0.00    -0.356 OA
HETATM   18  C   UNL     1       1.494   0.733   0.708  1.00  0.00     0.210 C 
ENDBRANCH  14  17
ENDBRANCH   1  11
BRANCH   6  19
HETATM   19  O   UNL     1       5.772   7.664  -8.769  1.00  0.00    -0.361 OA
HETATM   20  H   UNL     1       5.640   8.585  -8.497  1.00  0.00     0.217 HD
ENDBRANCH   6  19
TORSDOF 3
