REMARK  4 active torsions:
REMARK  status: ('A' for Active; 'I' for Inactive)
REMARK    1  A    between atoms: C_4  and  C_5 
REMARK    2  A    between atoms: C_8  and  O_9 
REMARK    3  A    between atoms: C_15  and  O_16 
REMARK    4  A    between atoms: C_18  and  O_19 
ROOT
HETATM    1  O   UNL     1       2.382   1.625   0.390  1.00  0.00    -0.292 OA
HETATM    2  C   UNL     1       1.853   0.521   0.303  1.00  0.00     0.167 C 
HETATM    3  C   UNL     1       2.689  -0.728   0.398  1.00  0.00     0.121 C 
HETATM    4  C   UNL     1       2.066  -1.817  -0.459  1.00  0.00     0.169 C 
HETATM    5  O   UNL     1       0.733  -2.102   0.007  1.00  0.00    -0.340 OA
HETATM    6  C   UNL     1      -0.081  -0.999   0.084  1.00  0.00     0.089 A 
HETATM    7  C   UNL     1      -1.451  -1.266   0.074  1.00  0.00     0.074 A 
HETATM    8  C   UNL     1      -2.351  -0.207   0.078  1.00  0.00     0.071 A 
HETATM    9  C   UNL     1      -1.904   1.109   0.093  1.00  0.00     0.074 A 
HETATM   10  C   UNL     1      -0.533   1.373   0.140  1.00  0.00     0.085 A 
HETATM   11  C   UNL     1       0.389   0.319   0.164  1.00  0.00     0.076 A 
ENDROOT
BRANCH   4  12
HETATM   12  C   UNL     1       2.111  -1.648  -1.978  1.00  0.00    -0.028 A 
HETATM   13  C   UNL     1       2.737  -0.558  -2.609  1.00  0.00     0.012 A 
HETATM   14  C   UNL     1       2.794  -0.465  -4.003  1.00  0.00     0.037 A 
HETATM   15  C   UNL     1       2.234  -1.470  -4.780  1.00  0.00     0.065 A 
HETATM   16  C   UNL     1       1.604  -2.554  -4.187  1.00  0.00     0.037 A 
HETATM   17  C   UNL     1       1.543  -2.644  -2.793  1.00  0.00     0.012 A 
BRANCH  15  18
HETATM   18  O   UNL     1       2.288  -1.424  -6.141  1.00  0.00    -0.361 OA
HETATM   19  H   UNL     1       2.782  -0.630  -6.403  1.00  0.00     0.217 HD
ENDBRANCH  15  18
ENDBRANCH   4  12
BRANCH  10  20
HETATM   20  O   UNL     1      -0.116   2.673   0.156  1.00  0.00    -0.360 OA
HETATM   21  H   UNL     1      -0.870   3.267   0.015  1.00  0.00     0.217 HD
ENDBRANCH  10  20
BRANCH   8  22
HETATM   22  O   UNL     1      -3.698  -0.417   0.053  1.00  0.00    -0.361 OA
HETATM   23  H   UNL     1      -3.869  -1.374   0.038  1.00  0.00     0.217 HD
ENDBRANCH   8  22
TORSDOF 4
