REMARK  4 active torsions:
REMARK  status: ('A' for Active; 'I' for Inactive)
REMARK    1  A    between atoms: C_4  and  C_5 
REMARK    2  A    between atoms: C_14  and  O_15 
REMARK    3  A    between atoms: C_16  and  O_17 
REMARK    4  A    between atoms: C_18  and  O_19 
ROOT
HETATM    1  O   UNL     1      -2.243   2.001   0.008  1.00  0.00    -0.287 OA
HETATM    2  C   UNL     1      -1.966   0.811  -0.016  1.00  0.00     0.190 A 
HETATM    3  C   UNL     1      -3.060  -0.172  -0.069  1.00  0.00     0.094 A 
HETATM    4  C   UNL     1      -2.781  -1.474  -0.064  1.00  0.00     0.090 A 
HETATM    5  O   UNL     1      -1.506  -2.008  -0.003  1.00  0.00    -0.309 OA
HETATM    6  C   UNL     1      -0.441  -1.135   0.005  1.00  0.00     0.096 A 
HETATM    7  C   UNL     1       0.835  -1.720   0.014  1.00  0.00     0.077 A 
HETATM    8  C   UNL     1       1.956  -0.899   0.009  1.00  0.00     0.104 A 
HETATM    9  C   UNL     1       1.808   0.483   0.004  1.00  0.00     0.133 A 
HETATM   10  C   UNL     1       0.545   1.071   0.004  1.00  0.00     0.118 A 
HETATM   11  C   UNL     1      -0.593   0.262   0.001  1.00  0.00     0.084 A 
ENDROOT
BRANCH   4  12
HETATM   12  C   UNL     1      -3.862  -2.468  -0.095  1.00  0.00    -0.002 A 
HETATM   13  C   UNL     1      -4.375  -2.926  -1.315  1.00  0.00     0.014 A 
HETATM   14  C   UNL     1      -5.344  -3.933  -1.339  1.00  0.00     0.001 A 
HETATM   15  C   UNL     1      -5.816  -4.478  -0.145  1.00  0.00     0.000 A 
HETATM   16  C   UNL     1      -5.341  -3.999   1.075  1.00  0.00     0.001 A 
HETATM   17  C   UNL     1      -4.375  -2.991   1.100  1.00  0.00     0.014 A 
ENDBRANCH   4  12
BRANCH  10  18
HETATM   18  O   UNL     1       0.479   2.435   0.003  1.00  0.00    -0.357 OA
HETATM   19  H   UNL     1       1.405   2.749   0.013  1.00  0.00     0.217 HD
ENDBRANCH  10  18
BRANCH   8  20
HETATM   20  O   UNL     1       3.227  -1.401   0.006  1.00  0.00    -0.358 OA
HETATM   21  H   UNL     1       3.179  -2.373   0.003  1.00  0.00     0.217 HD
ENDBRANCH   8  20
BRANCH   9  22
HETATM   22  O   UNL     1       2.913   1.296  -0.005  1.00  0.00    -0.356 OA
HETATM   23  H   UNL     1       3.673   0.679  -0.020  1.00  0.00     0.218 HD
ENDBRANCH   9  22
TORSDOF 4
