REMARK  3 active torsions:
REMARK  status: ('A' for Active; 'I' for Inactive)
REMARK    1  A    between atoms: O_2  and  C_3 
REMARK    2  A    between atoms: C_6  and  C_7 
REMARK    3  A    between atoms: C_12  and  O_13 
ROOT
HETATM    1  C   UNL     1       5.817  -4.123  -2.876  1.00  0.00     0.047 C 
HETATM    2  C   UNL     1       6.810  -3.883  -4.038  1.00  0.00     0.185 C 
HETATM    3  O   UNL     1       6.779  -4.829  -5.134  1.00  0.00    -0.350 OA
HETATM    4  C   UNL     1       6.421  -6.103  -4.779  1.00  0.00     0.077 A 
HETATM    5  C   UNL     1       7.029  -7.186  -5.418  1.00  0.00     0.074 A 
HETATM    6  C   UNL     1       6.696  -8.490  -5.028  1.00  0.00     0.070 A 
HETATM    7  C   UNL     1       5.750  -8.691  -4.023  1.00  0.00     0.037 A 
HETATM    8  C   UNL     1       5.103  -7.614  -3.429  1.00  0.00     0.013 A 
HETATM    9  C   UNL     1       5.434  -6.319  -3.822  1.00  0.00    -0.024 A 
HETATM   10  C   UNL     1       4.738  -5.125  -3.273  1.00  0.00     0.052 C 
ENDROOT
BRANCH   1  11
HETATM   11  C   UNL     1       5.113  -2.927  -2.257  1.00  0.00    -0.051 A 
HETATM   12  C   UNL     1       4.348  -2.031  -3.017  1.00  0.00     0.010 A 
HETATM   13  C   UNL     1       3.480  -1.121  -2.392  1.00  0.00     0.037 A 
HETATM   14  C   UNL     1       3.384  -1.078  -1.001  1.00  0.00     0.068 A 
HETATM   15  C   UNL     1       4.183  -1.933  -0.242  1.00  0.00     0.037 A 
HETATM   16  C   UNL     1       5.037  -2.848  -0.859  1.00  0.00     0.010 A 
BRANCH  14  17
HETATM   17  O   UNL     1       2.575  -0.267  -0.259  1.00  0.00    -0.356 OA
HETATM   18  C   UNL     1       1.591   0.500  -0.938  1.00  0.00     0.210 C 
ENDBRANCH  14  17
ENDBRANCH   1  11
BRANCH   6  19
HETATM   19  O   UNL     1       7.219  -9.649  -5.535  1.00  0.00    -0.356 OA
HETATM   20  C   UNL     1       8.114  -9.533  -6.630  1.00  0.00     0.210 C 
ENDBRANCH   6  19
TORSDOF 3
