REMARK  3 active torsions:
REMARK  status: ('A' for Active; 'I' for Inactive)
REMARK    1  A    between atoms: O_2  and  C_3 
REMARK    2  A    between atoms: C_6  and  C_7 
REMARK    3  A    between atoms: C_12  and  O_13 
ROOT
HETATM    1  C   UNL     1       5.091   2.525  -3.817  1.00  0.00     0.103 C 
HETATM    2  C   UNL     1       5.209   3.543  -2.934  1.00  0.00     0.182 C 
HETATM    3  O   UNL     1       4.661   4.803  -3.146  1.00  0.00    -0.341 OA
HETATM    4  C   UNL     1       3.590   4.782  -4.017  1.00  0.00     0.086 A 
HETATM    5  C   UNL     1       2.374   5.338  -3.638  1.00  0.00     0.074 A 
HETATM    6  C   UNL     1       1.275   5.148  -4.479  1.00  0.00     0.068 A 
HETATM    7  C   UNL     1       1.401   4.516  -5.719  1.00  0.00     0.037 A 
HETATM    8  C   UNL     1       2.621   3.951  -6.092  1.00  0.00     0.021 A 
HETATM    9  C   UNL     1       3.684   4.030  -5.191  1.00  0.00     0.044 A 
HETATM   10  C   UNL     1       4.734   2.998  -5.198  1.00  0.00     0.179 C 
HETATM   11  O   UNL     1       5.147   2.465  -6.222  1.00  0.00    -0.291 OA
ENDROOT
BRANCH   1  12
HETATM   12  C   UNL     1       4.384   1.373  -3.187  1.00  0.00    -0.037 C 
HETATM   13  C   UNL     1       2.991   1.313  -3.377  1.00  0.00     0.011 C 
HETATM   14  C   UNL     1       2.163   0.673  -2.455  1.00  0.00     0.037 C 
HETATM   15  C   UNL     1       2.722   0.034  -1.359  1.00  0.00     0.068 C 
HETATM   16  C   UNL     1       4.116  -0.061  -1.260  1.00  0.00     0.037 C 
HETATM   17  C   UNL     1       4.950   0.611  -2.165  1.00  0.00     0.011 C 
BRANCH  15  18
HETATM   18  O   UNL     1       2.003  -0.503  -0.327  1.00  0.00    -0.356 OA
HETATM   19  C   UNL     1       0.637  -0.093  -0.249  1.00  0.00     0.210 C 
ENDBRANCH  15  18
ENDBRANCH   1  12
BRANCH   6  20
HETATM   20  O   UNL     1       0.018   5.510  -4.088  1.00  0.00    -0.361 OA
HETATM   21  H   UNL     1       0.026   5.698  -3.134  1.00  0.00     0.217 HD
ENDBRANCH   6  20
TORSDOF 3
