REMARK  7 active torsions:
REMARK  status: ('A' for Active; 'I' for Inactive)
REMARK    1  A    between atoms: O_2  and  C_3 
REMARK    2  A    between atoms: C_6  and  C_7 
REMARK    3  A    between atoms: C_7  and  C_8 
REMARK    4  A    between atoms: C_8  and  C_9 
REMARK    5  A    between atoms: C_12  and  O_13 
REMARK    6  A    between atoms: C_14  and  O_15 
REMARK    7  A    between atoms: C_18  and  O_19 
ROOT
HETATM    1  C   UNL     1       5.292   4.691   0.465  1.00  0.00     0.043 C 
ENDROOT
BRANCH   1   2
HETATM    2  C   UNL     1       4.489   3.411   0.378  1.00  0.00    -0.055 A 
HETATM    3  C   UNL     1       3.346   3.196   1.152  1.00  0.00     0.010 A 
HETATM    4  C   UNL     1       2.617   2.011   1.039  1.00  0.00     0.040 A 
HETATM    5  C   UNL     1       2.983   1.020   0.122  1.00  0.00     0.101 A 
HETATM    6  C   UNL     1       4.110   1.235  -0.687  1.00  0.00     0.102 A 
HETATM    7  C   UNL     1       4.853   2.420  -0.545  1.00  0.00     0.046 A 
BRANCH   5   8
HETATM    8  O   UNL     1       2.321  -0.176   0.029  1.00  0.00    -0.353 OA
HETATM    9  C   UNL     1       0.973  -0.197   0.484  1.00  0.00     0.210 C 
ENDBRANCH   5   8
BRANCH   6  10
HETATM   10  O   UNL     1       4.630   0.379  -1.626  1.00  0.00    -0.353 OA
HETATM   11  C   UNL     1       3.703  -0.457  -2.308  1.00  0.00     0.210 C 
ENDBRANCH   6  10
ENDBRANCH   1   2
BRANCH   1  12
HETATM   12  C   UNL     1       5.343   5.317   1.866  1.00  0.00     0.043 C 
BRANCH  12  13
HETATM   13  C   UNL     1       6.183   6.568   1.905  1.00  0.00    -0.055 A 
HETATM   14  C   UNL     1       7.539   6.505   2.264  1.00  0.00     0.010 A 
HETATM   15  C   UNL     1       8.319   7.664   2.308  1.00  0.00     0.040 A 
HETATM   16  C   UNL     1       7.738   8.884   1.985  1.00  0.00     0.098 A 
HETATM   17  C   UNL     1       6.398   8.951   1.619  1.00  0.00     0.099 A 
HETATM   18  C   UNL     1       5.615   7.807   1.577  1.00  0.00     0.046 A 
BRANCH  16  19
HETATM   19  O   UNL     1       8.448  10.053   2.012  1.00  0.00    -0.358 OA
HETATM   20  H   UNL     1       9.350   9.848   2.312  1.00  0.00     0.217 HD
ENDBRANCH  16  19
BRANCH  17  21
HETATM   21  O   UNL     1       5.837  10.153   1.295  1.00  0.00    -0.358 OA
HETATM   22  H   UNL     1       6.570  10.794   1.382  1.00  0.00     0.217 HD
ENDBRANCH  17  21
ENDBRANCH  12  13
ENDBRANCH   1  12
TORSDOF 7
