REMARK  5 active torsions:
REMARK  status: ('A' for Active; 'I' for Inactive)
REMARK    1  A    between atoms: C_4  and  C_5 
REMARK    2  A    between atoms: C_8  and  O_9 
REMARK    3  A    between atoms: C_10  and  O_11 
REMARK    4  A    between atoms: C_16  and  O_17 
REMARK    5  A    between atoms: C_19  and  O_20 
ROOT
HETATM    1  O   UNL     1      -2.395   1.636   0.072  1.00  0.00    -0.287 OA
HETATM    2  C   UNL     1      -1.863   0.534   0.035  1.00  0.00     0.190 A 
HETATM    3  C   UNL     1      -2.721  -0.658  -0.021  1.00  0.00     0.094 A 
HETATM    4  C   UNL     1      -2.174  -1.880  -0.041  1.00  0.00     0.090 A 
HETATM    5  O   UNL     1      -0.808  -2.110   0.030  1.00  0.00    -0.309 OA
HETATM    6  C   UNL     1       0.041  -1.028   0.034  1.00  0.00     0.095 A 
HETATM    7  C   UNL     1       1.409  -1.319   0.032  1.00  0.00     0.075 A 
HETATM    8  C   UNL     1       2.325  -0.272   0.011  1.00  0.00     0.071 A 
HETATM    9  C   UNL     1       1.899   1.051  -0.001  1.00  0.00     0.074 A 
HETATM   10  C   UNL     1       0.533   1.337   0.009  1.00  0.00     0.085 A 
HETATM   11  C   UNL     1      -0.405   0.298   0.029  1.00  0.00     0.081 A 
ENDROOT
BRANCH   4  12
HETATM   12  C   UNL     1      -3.005  -3.100  -0.146  1.00  0.00     0.001 A 
HETATM   13  C   UNL     1      -4.229  -3.091  -0.849  1.00  0.00     0.017 A 
HETATM   14  C   UNL     1      -5.006  -4.246  -0.980  1.00  0.00     0.040 A 
HETATM   15  C   UNL     1      -4.552  -5.428  -0.417  1.00  0.00     0.098 A 
HETATM   16  C   UNL     1      -3.345  -5.457   0.275  1.00  0.00     0.099 A 
HETATM   17  C   UNL     1      -2.572  -4.310   0.417  1.00  0.00     0.053 A 
BRANCH  15  18
HETATM   18  O   UNL     1      -5.257  -6.595  -0.525  1.00  0.00    -0.358 OA
HETATM   19  H   UNL     1      -6.064  -6.412  -1.038  1.00  0.00     0.217 HD
ENDBRANCH  15  18
BRANCH  16  20
HETATM   20  O   UNL     1      -2.903  -6.630   0.818  1.00  0.00    -0.358 OA
HETATM   21  H   UNL     1      -3.590  -7.284   0.580  1.00  0.00     0.217 HD
ENDBRANCH  16  20
ENDBRANCH   4  12
BRANCH  10  22
HETATM   22  O   UNL     1       0.133   2.642  -0.012  1.00  0.00    -0.360 OA
HETATM   23  H   UNL     1       0.902   3.232  -0.010  1.00  0.00     0.217 HD
ENDBRANCH  10  22
BRANCH   8  24
HETATM   24  O   UNL     1       3.667  -0.499  -0.005  1.00  0.00    -0.361 OA
HETATM   25  H   UNL     1       3.831  -1.458  -0.022  1.00  0.00     0.217 HD
ENDBRANCH   8  24
TORSDOF 5
