REMARK  7 active torsions:
REMARK  status: ('A' for Active; 'I' for Inactive)
REMARK    1  A    between atoms: O_2  and  C_3 
REMARK    2  A    between atoms: C_5  and  O_6 
REMARK    3  A    between atoms: C_7  and  C_8 
REMARK    4  A    between atoms: C_8  and  C_10 
REMARK    5  A    between atoms: C_10  and  C_11 
REMARK    6  A    between atoms: C_11  and  C_12 
REMARK    7  A    between atoms: C_18  and  O_19 
ROOT
HETATM    1  C   UNL     1       3.032   1.089   0.047  1.00  0.00     0.073 A 
HETATM    2  C   UNL     1       2.396   2.317   0.023  1.00  0.00     0.074 A 
HETATM    3  C   UNL     1       3.159   3.494  -0.036  1.00  0.00     0.085 A 
HETATM    4  C   UNL     1       4.575   3.484  -0.053  1.00  0.00     0.076 A 
HETATM    5  C   UNL     1       5.217   2.230  -0.025  1.00  0.00     0.087 A 
HETATM    6  C   UNL     1       4.423   1.061   0.023  1.00  0.00     0.074 A 
ENDROOT
BRANCH   4   7
HETATM    7  C   UNL     1       5.280   4.802  -0.183  1.00  0.00     0.165 C 
HETATM    8  O   UNL     1       6.212   4.913  -0.980  1.00  0.00    -0.292 OA
BRANCH   7   9
HETATM    9  C   UNL     1       4.795   6.042   0.565  1.00  0.00     0.088 C 
BRANCH   9  10
HETATM   10  C   UNL     1       4.555   5.830   2.054  1.00  0.00     0.046 C 
BRANCH  10  11
HETATM   11  C   UNL     1       3.985   7.059   2.726  1.00  0.00    -0.058 A 
HETATM   12  C   UNL     1       2.598   7.245   2.812  1.00  0.00     0.007 A 
HETATM   13  C   UNL     1       2.073   8.367   3.456  1.00  0.00     0.001 A 
HETATM   14  C   UNL     1       2.925   9.319   4.011  1.00  0.00     0.000 A 
HETATM   15  C   UNL     1       4.307   9.154   3.912  1.00  0.00     0.001 A 
HETATM   16  C   UNL     1       4.835   8.032   3.268  1.00  0.00     0.007 A 
ENDBRANCH  10  11
ENDBRANCH   9  10
ENDBRANCH   7   9
ENDBRANCH   4   7
BRANCH   3  17
HETATM   17  O   UNL     1       2.462   4.673  -0.103  1.00  0.00    -0.360 OA
HETATM   18  H   UNL     1       1.505   4.504  -0.081  1.00  0.00     0.217 HD
ENDBRANCH   3  17
BRANCH   5  19
HETATM   19  O   UNL     1       6.529   1.853  -0.011  1.00  0.00    -0.355 OA
HETATM   20  C   UNL     1       7.604   2.766  -0.042  1.00  0.00     0.210 C 
ENDBRANCH   5  19
BRANCH   1  21
HETATM   21  O   UNL     1       2.426  -0.134   0.089  1.00  0.00    -0.356 OA
HETATM   22  C   UNL     1       1.005  -0.152   0.087  1.00  0.00     0.210 C 
ENDBRANCH   1  21
TORSDOF 7
