REMARK  4 active torsions:
REMARK  status: ('A' for Active; 'I' for Inactive)
REMARK    1  A    between atoms: O_1  and  C_2 
REMARK    2  A    between atoms: C_6  and  O_7 
REMARK    3  A    between atoms: C_8  and  O_9 
REMARK    4  A    between atoms: C_12  and  C_13 
ROOT
HETATM    1  C   UNL     1       2.329  -0.115   0.016  1.00  0.00     0.104 A 
HETATM    2  C   UNL     1       3.071   1.061   0.007  1.00  0.00     0.077 A 
HETATM    3  C   UNL     1       4.472   1.006  -0.009  1.00  0.00     0.086 A 
HETATM    4  C   UNL     1       5.154  -0.223  -0.023  1.00  0.00     0.033 A 
HETATM    5  C   UNL     1       4.387  -1.399  -0.008  1.00  0.00     0.114 A 
HETATM    6  C   UNL     1       2.987  -1.338   0.011  1.00  0.00     0.133 A 
HETATM    7  C   UNL     1       6.614  -0.211  -0.058  1.00  0.00     0.016 A 
HETATM    8  C   UNL     1       7.240   0.970  -0.056  1.00  0.00     0.011 A 
HETATM    9  C   UNL     1       6.520   2.290  -0.004  1.00  0.00     0.185 A 
HETATM   10  O   UNL     1       5.085   2.230  -0.007  1.00  0.00    -0.336 OA
ENDROOT
BRANCH   9  11
HETATM   11  C   UNL     1       6.949   3.111   1.201  1.00  0.00    -0.025 A 
HETATM   12  C   UNL     1       7.556   4.365   1.032  1.00  0.00     0.010 A 
HETATM   13  C   UNL     1       7.972   5.107   2.139  1.00  0.00     0.001 A 
HETATM   14  C   UNL     1       7.787   4.606   3.427  1.00  0.00     0.000 A 
HETATM   15  C   UNL     1       7.176   3.368   3.611  1.00  0.00     0.001 A 
HETATM   16  C   UNL     1       6.755   2.629   2.507  1.00  0.00     0.010 A 
ENDBRANCH   9  11
BRANCH   5  17
HETATM   17  O   UNL     1       4.913  -2.669  -0.011  1.00  0.00    -0.357 OA
HETATM   18  H   UNL     1       5.881  -2.615  -0.009  1.00  0.00     0.217 HD
ENDBRANCH   5  17
BRANCH   1  19
HETATM   19  O   UNL     1       0.965  -0.079   0.030  1.00  0.00    -0.358 OA
HETATM   20  H   UNL     1       0.669   0.844   0.022  1.00  0.00     0.217 HD
ENDBRANCH   1  19
BRANCH   6  21
HETATM   21  O   UNL     1       2.275  -2.509   0.024  1.00  0.00    -0.356 OA
HETATM   22  H   UNL     1       2.954  -3.212   0.018  1.00  0.00     0.218 HD
ENDBRANCH   6  21
TORSDOF 4
