REMARK  3 active torsions:
REMARK  status: ('A' for Active; 'I' for Inactive)
REMARK    1  A    between atoms: O_2  and  C_3 
REMARK    2  A    between atoms: C_5  and  O_6 
REMARK    3  A    between atoms: C_12  and  C_13 
ROOT
HETATM    1  C   UNL     1       3.210   0.051   1.290  1.00  0.00     0.073 A 
HETATM    2  C   UNL     1       2.830  -0.656   2.426  1.00  0.00     0.074 A 
HETATM    3  C   UNL     1       3.503  -0.529   3.666  1.00  0.00     0.087 A 
HETATM    4  C   UNL     1       4.601   0.347   3.757  1.00  0.00     0.081 A 
HETATM    5  C   UNL     1       5.419   0.643   4.971  1.00  0.00     0.190 A 
HETATM    6  O   UNL     1       5.190   0.246   6.104  1.00  0.00    -0.287 OA
HETATM    7  C   UNL     1       6.604   1.496   4.811  1.00  0.00     0.094 A 
HETATM    8  C   UNL     1       6.848   2.059   3.628  1.00  0.00     0.090 A 
HETATM    9  O   UNL     1       6.061   1.908   2.515  1.00  0.00    -0.309 OA
HETATM   10  C   UNL     1       4.987   1.045   2.590  1.00  0.00     0.095 A 
HETATM   11  C   UNL     1       4.295   0.905   1.380  1.00  0.00     0.075 A 
ENDROOT
BRANCH   8  12
HETATM   12  C   UNL     1       8.040   2.889   3.448  1.00  0.00    -0.002 A 
HETATM   13  C   UNL     1       9.239   2.296   3.032  1.00  0.00     0.014 A 
HETATM   14  C   UNL     1      10.402   3.059   2.929  1.00  0.00     0.001 A 
HETATM   15  C   UNL     1      10.374   4.418   3.238  1.00  0.00     0.000 A 
HETATM   16  C   UNL     1       9.182   5.017   3.647  1.00  0.00     0.001 A 
HETATM   17  C   UNL     1       8.017   4.255   3.753  1.00  0.00     0.014 A 
ENDBRANCH   8  12
BRANCH   3  18
HETATM   18  O   UNL     1       2.884  -1.356   4.559  1.00  0.00    -0.355 OA
HETATM   19  C   UNL     1       3.330  -1.550   5.883  1.00  0.00     0.210 C 
ENDBRANCH   3  18
BRANCH   1  20
HETATM   20  O   UNL     1       2.608  -0.013   0.065  1.00  0.00    -0.356 OA
HETATM   21  C   UNL     1       1.531  -0.934  -0.074  1.00  0.00     0.210 C 
ENDBRANCH   1  20
TORSDOF 3
