REMARK  6 active torsions:
REMARK  status: ('A' for Active; 'I' for Inactive)
REMARK    1  A    between atoms: O_2  and  C_3 
REMARK    2  A    between atoms: C_6  and  C_7 
REMARK    3  A    between atoms: C_11  and  O_12 
REMARK    4  A    between atoms: C_14  and  O_15 
REMARK    5  A    between atoms: C_17  and  O_18 
REMARK    6  A    between atoms: C_20  and  O_21 
ROOT
HETATM    1  C   UNL     1       3.639   3.190  -6.878  1.00  0.00     0.185 C 
HETATM    2  C   UNL     1       4.684   2.513  -7.728  1.00  0.00     0.011 C 
HETATM    3  C   UNL     1       4.960   1.222  -7.522  1.00  0.00     0.016 C 
HETATM    4  C   UNL     1       4.076   0.491  -6.607  1.00  0.00     0.036 C 
HETATM    5  C   UNL     1       3.808  -0.890  -6.689  1.00  0.00     0.117 C 
HETATM    6  C   UNL     1       3.009  -1.508  -5.686  1.00  0.00     0.139 C 
HETATM    7  C   UNL     1       2.530  -0.742  -4.584  1.00  0.00     0.141 C 
HETATM    8  C   UNL     1       2.828   0.634  -4.510  1.00  0.00     0.139 C 
HETATM    9  C   UNL     1       3.506   1.247  -5.567  1.00  0.00     0.119 C 
HETATM   10  O   UNL     1       3.625   2.625  -5.550  1.00  0.00    -0.333 OA
ENDROOT
BRANCH   1  11
HETATM   11  C   UNL     1       3.918   4.673  -6.759  1.00  0.00    -0.025 A 
HETATM   12  C   UNL     1       2.980   5.615  -7.209  1.00  0.00     0.013 A 
HETATM   13  C   UNL     1       3.264   6.982  -7.155  1.00  0.00     0.037 A 
HETATM   14  C   UNL     1       4.494   7.424  -6.653  1.00  0.00     0.068 A 
HETATM   15  C   UNL     1       5.421   6.491  -6.197  1.00  0.00     0.037 A 
HETATM   16  C   UNL     1       5.136   5.130  -6.237  1.00  0.00     0.013 A 
BRANCH  14  17
HETATM   17  O   UNL     1       4.900   8.724  -6.563  1.00  0.00    -0.356 OA
HETATM   18  C   UNL     1       3.976   9.719  -6.992  1.00  0.00     0.210 C 
ENDBRANCH  14  17
ENDBRANCH   1  11
BRANCH   8  19
HETATM   19  O   UNL     1       2.434   1.473  -3.490  1.00  0.00    -0.351 OA
HETATM   20  C   UNL     1       2.565   0.952  -2.167  1.00  0.00     0.210 C 
ENDBRANCH   8  19
BRANCH   5  21
HETATM   21  O   UNL     1       4.353  -1.689  -7.668  1.00  0.00    -0.352 OA
HETATM   22  C   UNL     1       4.326  -1.213  -9.014  1.00  0.00     0.210 C 
ENDBRANCH   5  21
BRANCH   7  23
HETATM   23  O   UNL     1       1.733  -1.185  -3.556  1.00  0.00    -0.350 OA
HETATM   24  C   UNL     1       1.274  -2.521  -3.486  1.00  0.00     0.210 C 
ENDBRANCH   7  23
BRANCH   6  25
HETATM   25  O   UNL     1       2.651  -2.833  -5.668  1.00  0.00    -0.351 OA
HETATM   26  C   UNL     1       2.871  -3.679  -6.783  1.00  0.00     0.210 C 
ENDBRANCH   6  25
TORSDOF 6
