REMARK  4 active torsions:
REMARK  status: ('A' for Active; 'I' for Inactive)
REMARK    1  A    between atoms: C_4  and  C_5 
REMARK    2  A    between atoms: C_8  and  O_9 
REMARK    3  A    between atoms: C_15  and  O_16 
REMARK    4  A    between atoms: C_18  and  O_19 
ROOT
HETATM    1  O   UNL     1      -2.418   1.614   0.049  1.00  0.00    -0.287 OA
HETATM    2  C   UNL     1      -1.883   0.515   0.012  1.00  0.00     0.190 A 
HETATM    3  C   UNL     1      -2.736  -0.686  -0.049  1.00  0.00     0.094 A 
HETATM    4  C   UNL     1      -2.165  -1.894  -0.040  1.00  0.00     0.090 A 
HETATM    5  O   UNL     1      -0.806  -2.125   0.029  1.00  0.00    -0.309 OA
HETATM    6  C   UNL     1       0.036  -1.037   0.031  1.00  0.00     0.095 A 
HETATM    7  C   UNL     1       1.406  -1.321   0.033  1.00  0.00     0.075 A 
HETATM    8  C   UNL     1       2.318  -0.272   0.013  1.00  0.00     0.071 A 
HETATM    9  C   UNL     1       1.886   1.050   0.001  1.00  0.00     0.074 A 
HETATM   10  C   UNL     1       0.517   1.330   0.005  1.00  0.00     0.085 A 
HETATM   11  C   UNL     1      -0.419   0.287   0.020  1.00  0.00     0.081 A 
ENDROOT
BRANCH   4  12
HETATM   12  C   UNL     1      -2.984  -3.108  -0.105  1.00  0.00    -0.002 A 
HETATM   13  C   UNL     1      -3.329  -3.665  -1.345  1.00  0.00     0.017 A 
HETATM   14  C   UNL     1      -4.086  -4.839  -1.408  1.00  0.00     0.037 A 
HETATM   15  C   UNL     1      -4.501  -5.449  -0.229  1.00  0.00     0.065 A 
HETATM   16  C   UNL     1      -4.187  -4.896   1.008  1.00  0.00     0.037 A 
HETATM   17  C   UNL     1      -3.429  -3.725   1.072  1.00  0.00     0.017 A 
BRANCH  15  18
HETATM   18  O   UNL     1      -5.222  -6.606  -0.241  1.00  0.00    -0.361 OA
HETATM   19  H   UNL     1      -5.331  -6.897  -1.161  1.00  0.00     0.217 HD
ENDBRANCH  15  18
ENDBRANCH   4  12
BRANCH  10  20
HETATM   20  O   UNL     1       0.116   2.634  -0.016  1.00  0.00    -0.360 OA
HETATM   21  H   UNL     1       0.886   3.225  -0.009  1.00  0.00     0.217 HD
ENDBRANCH  10  20
BRANCH   8  22
HETATM   22  O   UNL     1       3.663  -0.493  -0.002  1.00  0.00    -0.361 OA
HETATM   23  H   UNL     1       3.831  -1.451  -0.022  1.00  0.00     0.217 HD
ENDBRANCH   8  22
TORSDOF 4
