REMARK  3 active torsions:
REMARK  status: ('A' for Active; 'I' for Inactive)
REMARK    1  A    between atoms: O_2  and  C_3 
REMARK    2  A    between atoms: C_6  and  C_7 
REMARK    3  A    between atoms: C_12  and  O_13 
ROOT
HETATM    1  C   UNL     1       5.234   1.070  -4.284  1.00  0.00     0.103 C 
HETATM    2  C   UNL     1       5.365   2.305  -3.748  1.00  0.00     0.182 C 
HETATM    3  O   UNL     1       4.831   3.448  -4.332  1.00  0.00    -0.341 OA
HETATM    4  C   UNL     1       3.753   3.171  -5.150  1.00  0.00     0.086 C 
HETATM    5  C   UNL     1       2.529   3.800  -4.927  1.00  0.00     0.074 C 
HETATM    6  C   UNL     1       1.410   3.373  -5.650  1.00  0.00     0.070 C 
HETATM    7  C   UNL     1       1.554   2.413  -6.666  1.00  0.00     0.038 C 
HETATM    8  C   UNL     1       2.780   1.776  -6.880  1.00  0.00     0.021 C 
HETATM    9  C   UNL     1       3.850   2.111  -6.057  1.00  0.00     0.044 C 
HETATM   10  C   UNL     1       4.893   1.113  -5.749  1.00  0.00     0.179 C 
HETATM   11  O   UNL     1       5.298   0.305  -6.568  1.00  0.00    -0.291 OA
ENDROOT
BRANCH   1  12
HETATM   12  C   UNL     1       4.477   0.185  -3.347  1.00  0.00    -0.037 C 
HETATM   13  C   UNL     1       3.092   0.078  -3.550  1.00  0.00     0.011 C 
HETATM   14  C   UNL     1       2.225  -0.196  -2.497  1.00  0.00     0.037 C 
HETATM   15  C   UNL     1       2.739  -0.448  -1.233  1.00  0.00     0.068 C 
HETATM   16  C   UNL     1       4.123  -0.536  -1.064  1.00  0.00     0.037 C 
HETATM   17  C   UNL     1       4.996  -0.213  -2.112  1.00  0.00     0.011 C 
BRANCH  15  18
HETATM   18  O   UNL     1       1.982  -0.593  -0.102  1.00  0.00    -0.356 OA
HETATM   19  C   UNL     1       0.621  -0.178  -0.214  1.00  0.00     0.210 C 
ENDBRANCH  15  18
ENDBRANCH   1  12
BRANCH   6  20
HETATM   20  O   UNL     1       0.120   3.781  -5.439  1.00  0.00    -0.356 OA
HETATM   21  C   UNL     1      -0.147   4.467  -4.220  1.00  0.00     0.210 C 
ENDBRANCH   6  20
TORSDOF 3
