REMARK  5 active torsions:
REMARK  status: ('A' for Active; 'I' for Inactive)
REMARK    1  A    between atoms: O_1  and  C_2 
REMARK    2  A    between atoms: C_4  and  O_5 
REMARK    3  A    between atoms: C_10  and  C_11 
REMARK    4  A    between atoms: C_14  and  O_15 
REMARK    5  A    between atoms: C_16  and  O_17 
ROOT
HETATM    1  C   UNL     1       2.464   0.059   0.017  1.00  0.00     0.071 A 
HETATM    2  C   UNL     1       3.109  -1.173   0.012  1.00  0.00     0.074 A 
HETATM    3  C   UNL     1       4.505  -1.207  -0.000  1.00  0.00     0.081 A 
HETATM    4  C   UNL     1       5.258  -0.023  -0.009  1.00  0.00     0.030 A 
HETATM    5  C   UNL     1       4.585   1.204  -0.002  1.00  0.00     0.085 A 
HETATM    6  C   UNL     1       3.190   1.244   0.011  1.00  0.00     0.074 A 
HETATM    7  O   UNL     1       5.210   2.421   0.002  1.00  0.00    -0.336 OA
HETATM    8  C   UNL     1       6.648   2.459   0.005  1.00  0.00     0.185 A 
HETATM    9  C   UNL     1       7.359   1.133  -0.023  1.00  0.00     0.011 A 
HETATM   10  C   UNL     1       6.716  -0.038  -0.027  1.00  0.00     0.016 A 
ENDROOT
BRANCH   8  11
HETATM   11  C   UNL     1       7.081   3.297   1.196  1.00  0.00    -0.022 A 
HETATM   12  C   UNL     1       6.729   2.924   2.510  1.00  0.00     0.013 A 
HETATM   13  C   UNL     1       7.111   3.703   3.607  1.00  0.00     0.040 A 
HETATM   14  C   UNL     1       7.847   4.859   3.388  1.00  0.00     0.098 A 
HETATM   15  C   UNL     1       8.212   5.228   2.096  1.00  0.00     0.099 A 
HETATM   16  C   UNL     1       7.840   4.461   1.002  1.00  0.00     0.049 A 
BRANCH  14  17
HETATM   17  O   UNL     1       8.235   5.674   4.417  1.00  0.00    -0.358 OA
HETATM   18  H   UNL     1       7.862   5.313   5.239  1.00  0.00     0.217 HD
ENDBRANCH  14  17
BRANCH  15  19
HETATM   19  O   UNL     1       8.942   6.365   1.891  1.00  0.00    -0.358 OA
HETATM   20  H   UNL     1       9.068   6.736   2.787  1.00  0.00     0.217 HD
ENDBRANCH  15  19
ENDBRANCH   8  11
BRANCH   3  21
HETATM   21  O   UNL     1       5.155  -2.413  -0.003  1.00  0.00    -0.360 OA
HETATM   22  H   UNL     1       4.501  -3.130  -0.008  1.00  0.00     0.217 HD
ENDBRANCH   3  21
BRANCH   1  23
HETATM   23  O   UNL     1       1.103   0.150   0.028  1.00  0.00    -0.361 OA
HETATM   24  H   UNL     1       0.722  -0.742   0.014  1.00  0.00     0.217 HD
ENDBRANCH   1  23
TORSDOF 5
