REMARK  7 active torsions:
REMARK  status: ('A' for Active; 'I' for Inactive)
REMARK    1  A    between atoms: O_2  and  C_3 
REMARK    2  A    between atoms: C_5  and  O_6 
REMARK    3  A    between atoms: C_7  and  C_8 
REMARK    4  A    between atoms: C_8  and  C_10 
REMARK    5  A    between atoms: C_10  and  C_11 
REMARK    6  A    between atoms: C_11  and  C_12 
REMARK    7  A    between atoms: C_18  and  O_19 
ROOT
HETATM    1  C   UNL     1       2.847  -1.377  -0.057  1.00  0.00     0.073 A 
HETATM    2  C   UNL     1       4.097  -1.367  -0.669  1.00  0.00     0.074 A 
HETATM    3  C   UNL     1       4.889  -2.529  -0.670  1.00  0.00     0.085 A 
HETATM    4  C   UNL     1       4.460  -3.718  -0.044  1.00  0.00     0.076 A 
HETATM    5  C   UNL     1       3.199  -3.700   0.572  1.00  0.00     0.085 A 
HETATM    6  C   UNL     1       2.404  -2.548   0.552  1.00  0.00     0.074 A 
ENDROOT
BRANCH   4   7
HETATM    7  C   UNL     1       5.347  -4.939  -0.047  1.00  0.00     0.165 C 
HETATM    8  O   UNL     1       6.566  -4.826   0.027  1.00  0.00    -0.292 OA
BRANCH   7   9
HETATM    9  C   UNL     1       4.692  -6.312  -0.043  1.00  0.00     0.088 C 
BRANCH   9  10
HETATM   10  C   UNL     1       5.521  -7.394  -0.730  1.00  0.00     0.046 C 
BRANCH  10  11
HETATM   11  C   UNL     1       4.795  -8.722  -0.685  1.00  0.00    -0.058 A 
HETATM   12  C   UNL     1       3.869  -9.057  -1.683  1.00  0.00     0.007 A 
HETATM   13  C   UNL     1       3.192 -10.277  -1.644  1.00  0.00     0.001 A 
HETATM   14  C   UNL     1       3.423 -11.172  -0.602  1.00  0.00     0.000 A 
HETATM   15  C   UNL     1       4.325 -10.841   0.408  1.00  0.00     0.001 A 
HETATM   16  C   UNL     1       5.003  -9.620   0.372  1.00  0.00     0.007 A 
ENDBRANCH  10  11
ENDBRANCH   9  10
ENDBRANCH   7   9
ENDBRANCH   4   7
BRANCH   3  17
HETATM   17  O   UNL     1       6.082  -2.488  -1.344  1.00  0.00    -0.360 OA
HETATM   18  H   UNL     1       6.319  -1.572  -1.562  1.00  0.00     0.217 HD
ENDBRANCH   3  17
BRANCH   5  19
HETATM   19  O   UNL     1       2.622  -4.746   1.239  1.00  0.00    -0.360 OA
HETATM   20  H   UNL     1       3.299  -5.255   1.710  1.00  0.00     0.217 HD
ENDBRANCH   5  19
BRANCH   1  21
HETATM   21  O   UNL     1       1.968  -0.334   0.018  1.00  0.00    -0.356 OA
HETATM   22  C   UNL     1       2.346   0.890  -0.597  1.00  0.00     0.210 C 
ENDBRANCH   1  21
TORSDOF 7
