REMARK  6 active torsions:
REMARK  status: ('A' for Active; 'I' for Inactive)
REMARK    1  A    between atoms: O_2  and  C_3 
REMARK    2  A    between atoms: C_6  and  C_7 
REMARK    3  A    between atoms: C_7  and  C_9 
REMARK    4  A    between atoms: C_9  and  C_11 
REMARK    5  A    between atoms: C_14  and  O_15 
REMARK    6  A    between atoms: C_18  and  O_19 
ROOT
HETATM    1  C   UNL     1       4.610   3.661   4.889  1.00  0.00     0.170 C 
HETATM    2  O   UNL     1       3.381   3.800   4.923  1.00  0.00    -0.291 OA
ENDROOT
BRANCH   1   3
HETATM    3  C   UNL     1       5.350   3.314   3.587  1.00  0.00     0.089 C 
HETATM    4  C   UNL     1       5.658   4.614   2.839  1.00  0.00     0.023 C 
BRANCH   3   5
HETATM    5  C   UNL     1       4.554   2.347   2.707  1.00  0.00    -0.047 A 
HETATM    6  C   UNL     1       5.064   1.074   2.414  1.00  0.00     0.011 A 
HETATM    7  C   UNL     1       4.329   0.159   1.645  1.00  0.00     0.037 A 
HETATM    8  C   UNL     1       3.070   0.503   1.155  1.00  0.00     0.068 A 
HETATM    9  C   UNL     1       2.566   1.775   1.421  1.00  0.00     0.037 A 
HETATM   10  C   UNL     1       3.300   2.690   2.180  1.00  0.00     0.011 A 
BRANCH   8  11
HETATM   11  O   UNL     1       2.243  -0.297   0.415  1.00  0.00    -0.356 OA
HETATM   12  C   UNL     1       2.683  -1.625   0.166  1.00  0.00     0.210 C 
ENDBRANCH   8  11
ENDBRANCH   3   5
ENDBRANCH   1   3
BRANCH   1  13
HETATM   13  C   UNL     1       5.336   3.983   6.156  1.00  0.00     0.044 A 
HETATM   14  C   UNL     1       4.706   4.908   7.011  1.00  0.00     0.021 A 
HETATM   15  C   UNL     1       5.216   5.199   8.280  1.00  0.00     0.038 A 
HETATM   16  C   UNL     1       6.373   4.566   8.721  1.00  0.00     0.070 A 
HETATM   17  C   UNL     1       7.028   3.671   7.868  1.00  0.00     0.074 A 
HETATM   18  C   UNL     1       6.513   3.375   6.596  1.00  0.00     0.082 A 
BRANCH  16  19
HETATM   19  O   UNL     1       6.950   4.722   9.951  1.00  0.00    -0.356 OA
HETATM   20  C   UNL     1       6.249   5.531  10.892  1.00  0.00     0.210 C 
ENDBRANCH  16  19
BRANCH  18  21
HETATM   21  O   UNL     1       7.160   2.448   5.832  1.00  0.00    -0.360 OA
HETATM   22  H   UNL     1       7.923   2.101   6.326  1.00  0.00     0.217 HD
ENDBRANCH  18  21
ENDBRANCH   1  13
TORSDOF 6
