REMARK  12 active torsions:
REMARK  status: ('A' for Active; 'I' for Inactive)
REMARK    1  A    between atoms: C_2  and  C_3 
REMARK    2  A    between atoms: C_3  and  C_4 
REMARK    3  A    between atoms: C_4  and  C_5 
REMARK    4  A    between atoms: C_5  and  C_6 
REMARK    5  A    between atoms: C_6  and  C_7 
REMARK    6  A    between atoms: C_7  and  C_8 
REMARK    7  A    between atoms: C_8  and  C_9 
REMARK    8  A    between atoms: C_9  and  C_10 
REMARK    9  A    between atoms: C_10  and  C_11 
REMARK   10  A    between atoms: C_14  and  O_15 
REMARK   11  A    between atoms: C_16  and  O_17 
REMARK   12  A    between atoms: C_18  and  O_19 
ROOT
HETATM    1  C   UNL     1      11.142   2.197  -6.864  1.00  0.00    -0.022 A 
HETATM    2  C   UNL     1      11.365   3.566  -7.100  1.00  0.00     0.013 A 
HETATM    3  C   UNL     1      11.734   4.025  -8.371  1.00  0.00     0.040 A 
HETATM    4  C   UNL     1      11.880   3.111  -9.406  1.00  0.00     0.101 A 
HETATM    5  C   UNL     1      11.669   1.756  -9.180  1.00  0.00     0.133 A 
HETATM    6  C   UNL     1      11.302   1.300  -7.921  1.00  0.00     0.107 A 
ENDROOT
BRANCH   1   7
HETATM    7  C   UNL     1      10.650   1.744  -5.514  1.00  0.00     0.041 C 
BRANCH   7   8
HETATM    8  C   UNL     1       9.123   1.737  -5.492  1.00  0.00     0.005 C 
BRANCH   8   9
HETATM    9  C   UNL     1       8.598   1.284  -4.137  1.00  0.00     0.000 C 
BRANCH   9  10
HETATM   10  C   UNL     1       7.073   1.280  -4.131  1.00  0.00     0.000 C 
BRANCH  10  11
HETATM   11  C   UNL     1       6.545   0.827  -2.777  1.00  0.00     0.000 C 
BRANCH  11  12
HETATM   12  C   UNL     1       5.022   0.821  -2.766  1.00  0.00     0.000 C 
BRANCH  12  13
HETATM   13  C   UNL     1       4.497   0.367  -1.409  1.00  0.00     0.000 C 
BRANCH  13  14
HETATM   14  C   UNL     1       2.972   0.360  -1.395  1.00  0.00    -0.000 C 
BRANCH  14  15
HETATM   15  C   UNL     1       2.438  -0.091  -0.039  1.00  0.00    -0.005 C 
HETATM   16  C   UNL     1       0.920  -0.097  -0.027  1.00  0.00     0.005 C 
ENDBRANCH  14  15
ENDBRANCH  13  14
ENDBRANCH  12  13
ENDBRANCH  11  12
ENDBRANCH  10  11
ENDBRANCH   9  10
ENDBRANCH   8   9
ENDBRANCH   7   8
ENDBRANCH   1   7
BRANCH   6  17
HETATM   17  O   UNL     1      11.070  -0.036  -7.740  1.00  0.00    -0.357 OA
HETATM   18  H   UNL     1      11.241  -0.433  -8.618  1.00  0.00     0.217 HD
ENDBRANCH   6  17
BRANCH   5  19
HETATM   19  O   UNL     1      11.803   0.851 -10.200  1.00  0.00    -0.356 OA
HETATM   20  H   UNL     1      12.052   1.399 -10.971  1.00  0.00     0.218 HD
ENDBRANCH   5  19
BRANCH   4  21
HETATM   21  O   UNL     1      12.219   3.501 -10.672  1.00  0.00    -0.358 OA
HETATM   22  H   UNL     1      12.291   4.471 -10.678  1.00  0.00     0.217 HD
ENDBRANCH   4  21
TORSDOF 12
