REMARK  3 active torsions:
REMARK  status: ('A' for Active; 'I' for Inactive)
REMARK    1  A    between atoms: O_1  and  C_2 
REMARK    2  A    between atoms: C_4  and  O_5 
REMARK    3  A    between atoms: C_10  and  C_11 
ROOT
HETATM    1  C   UNL     1       2.376   0.032  -0.064  1.00  0.00     0.071 A 
HETATM    2  C   UNL     1       3.020  -1.199  -0.065  1.00  0.00     0.074 A 
HETATM    3  C   UNL     1       4.416  -1.232  -0.082  1.00  0.00     0.081 A 
HETATM    4  C   UNL     1       5.168  -0.050  -0.099  1.00  0.00     0.030 A 
HETATM    5  C   UNL     1       4.496   1.177  -0.097  1.00  0.00     0.085 A 
HETATM    6  C   UNL     1       3.100   1.218  -0.078  1.00  0.00     0.074 A 
HETATM    7  O   UNL     1       5.122   2.393  -0.110  1.00  0.00    -0.336 OA
HETATM    8  C   UNL     1       6.561   2.429  -0.088  1.00  0.00     0.185 A 
HETATM    9  C   UNL     1       7.270   1.103  -0.123  1.00  0.00     0.011 A 
HETATM   10  C   UNL     1       6.626  -0.067  -0.123  1.00  0.00     0.016 A 
ENDROOT
BRANCH   8  11
HETATM   11  C   UNL     1       6.986   3.250   1.118  1.00  0.00    -0.025 A 
HETATM   12  C   UNL     1       6.621   2.859   2.418  1.00  0.00     0.010 A 
HETATM   13  C   UNL     1       7.002   3.620   3.523  1.00  0.00     0.001 A 
HETATM   14  C   UNL     1       7.755   4.779   3.342  1.00  0.00     0.000 A 
HETATM   15  C   UNL     1       8.137   5.170   2.060  1.00  0.00     0.001 A 
HETATM   16  C   UNL     1       7.758   4.409   0.953  1.00  0.00     0.010 A 
ENDBRANCH   8  11
BRANCH   3  17
HETATM   17  O   UNL     1       5.069  -2.439  -0.084  1.00  0.00    -0.360 OA
HETATM   18  H   UNL     1       4.415  -3.157  -0.072  1.00  0.00     0.217 HD
ENDBRANCH   3  17
BRANCH   1  19
HETATM   19  O   UNL     1       1.014   0.122  -0.049  1.00  0.00    -0.361 OA
HETATM   20  H   UNL     1       0.634  -0.771  -0.054  1.00  0.00     0.217 HD
ENDBRANCH   1  19
TORSDOF 3
