REMARK  6 active torsions:
REMARK  status: ('A' for Active; 'I' for Inactive)
REMARK    1  A    between atoms: O_2  and  C_3 
REMARK    2  A    between atoms: C_5  and  O_6 
REMARK    3  A    between atoms: C_7  and  C_8 
REMARK    4  A    between atoms: C_8  and  C_10 
REMARK    5  A    between atoms: C_11  and  C_12 
REMARK    6  A    between atoms: C_18  and  O_19 
ROOT
HETATM    1  C   UNL     1       3.020   1.276   0.121  1.00  0.00     0.073 A 
HETATM    2  C   UNL     1       2.376   2.501   0.148  1.00  0.00     0.074 A 
HETATM    3  C   UNL     1       3.130   3.683   0.120  1.00  0.00     0.085 A 
HETATM    4  C   UNL     1       4.548   3.676   0.083  1.00  0.00     0.081 A 
HETATM    5  C   UNL     1       5.196   2.430   0.062  1.00  0.00     0.087 A 
HETATM    6  C   UNL     1       4.412   1.255   0.080  1.00  0.00     0.074 A 
ENDROOT
BRANCH   4   7
HETATM    7  C   UNL     1       5.248   4.989  -0.034  1.00  0.00     0.187 C 
HETATM    8  O   UNL     1       6.088   5.163  -0.914  1.00  0.00    -0.287 OA
BRANCH   7   9
HETATM    9  C   UNL     1       4.888   6.097   0.904  1.00  0.00     0.056 C 
HETATM   10  C   UNL     1       5.556   7.261   0.835  1.00  0.00     0.015 C 
BRANCH  10  11
HETATM   11  C   UNL     1       5.265   8.402   1.703  1.00  0.00    -0.036 A 
HETATM   12  C   UNL     1       5.838   8.473   2.976  1.00  0.00     0.011 A 
HETATM   13  C   UNL     1       5.603   9.578   3.797  1.00  0.00     0.001 A 
HETATM   14  C   UNL     1       4.790  10.619   3.352  1.00  0.00     0.000 A 
HETATM   15  C   UNL     1       4.210  10.555   2.085  1.00  0.00     0.001 A 
HETATM   16  C   UNL     1       4.446   9.451   1.261  1.00  0.00     0.011 A 
ENDBRANCH  10  11
ENDBRANCH   7   9
ENDBRANCH   4   7
BRANCH   3  17
HETATM   17  O   UNL     1       2.440   4.871   0.095  1.00  0.00    -0.360 OA
HETATM   18  H   UNL     1       1.483   4.701   0.088  1.00  0.00     0.217 HD
ENDBRANCH   3  17
BRANCH   5  19
HETATM   19  O   UNL     1       6.514   2.066   0.046  1.00  0.00    -0.355 OA
HETATM   20  C   UNL     1       7.577   2.992  -0.027  1.00  0.00     0.210 C 
ENDBRANCH   5  19
BRANCH   1  21
HETATM   21  O   UNL     1       2.431   0.044   0.124  1.00  0.00    -0.356 OA
HETATM   22  C   UNL     1       1.011  -0.002   0.145  1.00  0.00     0.210 C 
ENDBRANCH   1  21
TORSDOF 6
