REMARK  3 active torsions:
REMARK  status: ('A' for Active; 'I' for Inactive)
REMARK    1  A    between atoms: C_4  and  C_5 
REMARK    2  A    between atoms: C_14  and  O_15 
REMARK    3  A    between atoms: C_17  and  O_18 
ROOT
HETATM    1  O   UNL     1      -2.410   1.627  -0.009  1.00  0.00    -0.287 OA
HETATM    2  C   UNL     1      -1.874   0.528  -0.036  1.00  0.00     0.190 A 
HETATM    3  C   UNL     1      -2.725  -0.672  -0.084  1.00  0.00     0.094 A 
HETATM    4  C   UNL     1      -2.157  -1.883  -0.072  1.00  0.00     0.090 A 
HETATM    5  O   UNL     1      -0.797  -2.113  -0.013  1.00  0.00    -0.309 OA
HETATM    6  C   UNL     1       0.047  -1.025  -0.004  1.00  0.00     0.095 A 
HETATM    7  C   UNL     1       1.415  -1.312   0.010  1.00  0.00     0.075 A 
HETATM    8  C   UNL     1       2.327  -0.264   0.007  1.00  0.00     0.071 A 
HETATM    9  C   UNL     1       1.897   1.058  -0.003  1.00  0.00     0.074 A 
HETATM   10  C   UNL     1       0.528   1.339  -0.011  1.00  0.00     0.085 A 
HETATM   11  C   UNL     1      -0.409   0.297  -0.014  1.00  0.00     0.081 A 
ENDROOT
BRANCH   4  12
HETATM   12  C   UNL     1      -2.972  -3.097  -0.110  1.00  0.00    -0.002 A 
HETATM   13  C   UNL     1      -3.366  -3.652  -1.334  1.00  0.00     0.014 A 
HETATM   14  C   UNL     1      -4.098  -4.841  -1.366  1.00  0.00     0.001 A 
HETATM   15  C   UNL     1      -4.446  -5.478  -0.175  1.00  0.00     0.000 A 
HETATM   16  C   UNL     1      -4.082  -4.917   1.048  1.00  0.00     0.001 A 
HETATM   17  C   UNL     1      -3.351  -3.728   1.082  1.00  0.00     0.014 A 
ENDBRANCH   4  12
BRANCH  10  18
HETATM   18  O   UNL     1       0.129   2.645  -0.026  1.00  0.00    -0.360 OA
HETATM   19  H   UNL     1       0.899   3.234  -0.007  1.00  0.00     0.217 HD
ENDBRANCH  10  18
BRANCH   8  20
HETATM   20  O   UNL     1       3.673  -0.486   0.007  1.00  0.00    -0.361 OA
HETATM   21  H   UNL     1       3.840  -1.443  -0.017  1.00  0.00     0.217 HD
ENDBRANCH   8  20
TORSDOF 3
