REMARK  4 active torsions:
REMARK  status: ('A' for Active; 'I' for Inactive)
REMARK    1  A    between atoms: O_2  and  C_3 
REMARK    2  A    between atoms: C_6  and  C_7 
REMARK    3  A    between atoms: C_12  and  O_13 
REMARK    4  A    between atoms: C_18  and  O_19 
ROOT
HETATM    1  C   UNL     1       5.143  -5.210   1.649  1.00  0.00     0.076 C 
HETATM    2  C   UNL     1       6.297  -6.066   0.856  1.00  0.00     0.188 C 
HETATM    3  O   UNL     1       5.882  -7.381   0.219  1.00  0.00    -0.350 OA
HETATM    4  C   UNL     1       4.767  -7.207  -0.613  1.00  0.00     0.080 C 
HETATM    5  C   UNL     1       4.894  -7.555  -1.960  1.00  0.00     0.074 C 
HETATM    6  C   UNL     1       4.712  -6.551  -2.904  1.00  0.00     0.070 C 
HETATM    7  C   UNL     1       4.325  -5.300  -2.446  1.00  0.00     0.037 C 
HETATM    8  C   UNL     1       3.882  -5.141  -1.124  1.00  0.00     0.015 C 
HETATM    9  C   UNL     1       3.962  -6.186  -0.178  1.00  0.00     0.005 C 
HETATM   10  C   UNL     1       3.922  -6.085   1.364  1.00  0.00     0.164 C 
ENDROOT
BRANCH   1  11
HETATM   11  C   UNL     1       4.677  -3.706   1.470  1.00  0.00    -0.049 C 
HETATM   12  C   UNL     1       3.275  -3.414   1.367  1.00  0.00     0.010 C 
HETATM   13  C   UNL     1       2.732  -2.164   1.091  1.00  0.00     0.037 C 
HETATM   14  C   UNL     1       3.540  -1.080   0.943  1.00  0.00     0.068 C 
HETATM   15  C   UNL     1       4.911  -1.272   1.177  1.00  0.00     0.037 C 
HETATM   16  C   UNL     1       5.481  -2.557   1.428  1.00  0.00     0.010 C 
BRANCH  14  17
HETATM   17  O   UNL     1       3.081   0.172   0.614  1.00  0.00    -0.356 OA
HETATM   18  C   UNL     1       1.723   0.243   0.155  1.00  0.00     0.210 C 
ENDBRANCH  14  17
ENDBRANCH   1  11
BRANCH  10  19
HETATM   19  O   UNL     1       4.042  -7.321   2.120  1.00  0.00    -0.390 OA
HETATM   20  H   UNL     1       4.138  -7.065   3.055  1.00  0.00     0.210 HD
ENDBRANCH  10  19
BRANCH   6  21
HETATM   21  O   UNL     1       4.997  -6.607  -4.238  1.00  0.00    -0.356 OA
HETATM   22  C   UNL     1       5.249  -7.896  -4.773  1.00  0.00     0.210 C 
ENDBRANCH   6  21
TORSDOF 4
