REMARK  7 active torsions:
REMARK  status: ('A' for Active; 'I' for Inactive)
REMARK    1  A    between atoms: O_2  and  C_3 
REMARK    2  A    between atoms: C_6  and  C_7 
REMARK    3  A    between atoms: C_9  and  O_10 
REMARK    4  A    between atoms: C_12  and  O_13 
REMARK    5  A    between atoms: C_15  and  O_16 
REMARK    6  A    between atoms: C_18  and  O_19 
REMARK    7  A    between atoms: C_21  and  O_22 
ROOT
HETATM    1  C   UNL     1       5.171  -2.580   4.427  1.00  0.00     0.164 C 
HETATM    2  C   UNL     1       4.688  -2.112   5.782  1.00  0.00     0.074 C 
HETATM    3  C   UNL     1       5.691  -2.624   6.803  1.00  0.00     0.159 C 
HETATM    4  C   UNL     1       6.024  -4.093   6.615  1.00  0.00     0.043 A 
HETATM    5  C   UNL     1       6.677  -4.897   7.585  1.00  0.00     0.116 A 
HETATM    6  C   UNL     1       6.822  -6.300   7.362  1.00  0.00     0.138 A 
HETATM    7  C   UNL     1       6.311  -6.898   6.181  1.00  0.00     0.141 A 
HETATM    8  C   UNL     1       5.682  -6.094   5.218  1.00  0.00     0.138 A 
HETATM    9  C   UNL     1       5.611  -4.702   5.406  1.00  0.00     0.117 A 
HETATM   10  O   UNL     1       5.040  -4.001   4.365  1.00  0.00    -0.337 OA
ENDROOT
BRANCH   1  11
HETATM   11  C   UNL     1       4.374  -1.927   3.317  1.00  0.00    -0.029 A 
HETATM   12  C   UNL     1       4.797  -0.695   2.792  1.00  0.00     0.012 A 
HETATM   13  C   UNL     1       4.075  -0.069   1.780  1.00  0.00     0.037 A 
HETATM   14  C   UNL     1       2.918  -0.656   1.269  1.00  0.00     0.068 A 
HETATM   15  C   UNL     1       2.484  -1.873   1.796  1.00  0.00     0.037 A 
HETATM   16  C   UNL     1       3.203  -2.505   2.813  1.00  0.00     0.012 A 
BRANCH  14  17
HETATM   17  O   UNL     1       2.129  -0.153   0.272  1.00  0.00    -0.356 OA
HETATM   18  C   UNL     1       2.530   1.084  -0.299  1.00  0.00     0.210 C 
ENDBRANCH  14  17
ENDBRANCH   1  11
BRANCH   3  19
HETATM   19  O   UNL     1       5.136  -2.321   8.080  1.00  0.00    -0.391 OA
HETATM   20  H   UNL     1       4.946  -3.163   8.530  1.00  0.00     0.210 HD
ENDBRANCH   3  19
BRANCH   8  21
HETATM   21  O   UNL     1       5.154  -6.549   4.027  1.00  0.00    -0.351 OA
HETATM   22  C   UNL     1       4.429  -7.774   4.071  1.00  0.00     0.210 C 
ENDBRANCH   8  21
BRANCH   5  23
HETATM   23  O   UNL     1       7.022  -4.449   8.833  1.00  0.00    -0.352 OA
HETATM   24  C   UNL     1       7.652  -3.191   9.049  1.00  0.00     0.210 C 
ENDBRANCH   5  23
BRANCH   7  25
HETATM   25  O   UNL     1       6.283  -8.250   5.939  1.00  0.00    -0.350 OA
HETATM   26  C   UNL     1       7.419  -9.031   6.274  1.00  0.00     0.210 C 
ENDBRANCH   7  25
BRANCH   6  27
HETATM   27  O   UNL     1       7.379  -7.203   8.235  1.00  0.00    -0.351 OA
HETATM   28  C   UNL     1       7.995  -6.801   9.443  1.00  0.00     0.210 C 
ENDBRANCH   6  27
TORSDOF 7
