REMARK  6 active torsions:
REMARK  status: ('A' for Active; 'I' for Inactive)
REMARK    1  A    between atoms: O_2  and  C_3 
REMARK    2  A    between atoms: C_6  and  C_7 
REMARK    3  A    between atoms: C_11  and  O_12 
REMARK    4  A    between atoms: C_14  and  O_15 
REMARK    5  A    between atoms: C_17  and  O_18 
REMARK    6  A    between atoms: C_20  and  O_21 
ROOT
HETATM    1  C   UNL     1       4.709  -3.202  -4.308  1.00  0.00     0.083 C 
HETATM    2  C   UNL     1       4.685  -4.537  -4.181  1.00  0.00     0.016 C 
HETATM    3  C   UNL     1       4.885  -5.368  -5.395  1.00  0.00     0.074 C 
HETATM    4  C   UNL     1       5.846  -4.710  -6.348  1.00  0.00     0.018 A 
HETATM    5  C   UNL     1       6.732  -5.377  -7.214  1.00  0.00     0.113 A 
HETATM    6  C   UNL     1       7.445  -4.644  -8.210  1.00  0.00     0.138 A 
HETATM    7  C   UNL     1       7.235  -3.240  -8.343  1.00  0.00     0.141 A 
HETATM    8  C   UNL     1       6.333  -2.588  -7.481  1.00  0.00     0.139 A 
HETATM    9  C   UNL     1       5.718  -3.311  -6.453  1.00  0.00     0.121 A 
HETATM   10  O   UNL     1       4.960  -2.596  -5.534  1.00  0.00    -0.307 OA
ENDROOT
BRANCH   1  11
HETATM   11  C   UNL     1       4.380  -2.266  -3.212  1.00  0.00    -0.002 A 
HETATM   12  C   UNL     1       4.954  -0.988  -3.181  1.00  0.00     0.017 A 
HETATM   13  C   UNL     1       4.550  -0.044  -2.234  1.00  0.00     0.037 A 
HETATM   14  C   UNL     1       3.559  -0.367  -1.304  1.00  0.00     0.068 A 
HETATM   15  C   UNL     1       3.029  -1.655  -1.283  1.00  0.00     0.037 A 
HETATM   16  C   UNL     1       3.429  -2.594  -2.236  1.00  0.00     0.017 A 
BRANCH  14  17
HETATM   17  O   UNL     1       3.057   0.495  -0.368  1.00  0.00    -0.356 OA
HETATM   18  C   UNL     1       2.983   1.852  -0.798  1.00  0.00     0.210 C 
ENDBRANCH  14  17
ENDBRANCH   1  11
BRANCH   8  19
HETATM   19  O   UNL     1       6.037  -1.241  -7.520  1.00  0.00    -0.351 OA
HETATM   20  C   UNL     1       5.794  -0.702  -8.820  1.00  0.00     0.210 C 
ENDBRANCH   8  19
BRANCH   5  21
HETATM   21  O   UNL     1       6.826  -6.749  -7.228  1.00  0.00    -0.352 OA
HETATM   22  C   UNL     1       7.128  -7.393  -5.990  1.00  0.00     0.210 C 
ENDBRANCH   5  21
BRANCH   7  23
HETATM   23  O   UNL     1       7.854  -2.390  -9.229  1.00  0.00    -0.350 OA
HETATM   24  C   UNL     1       8.783  -2.855 -10.188  1.00  0.00     0.210 C 
ENDBRANCH   7  23
BRANCH   6  25
HETATM   25  O   UNL     1       8.331  -5.179  -9.108  1.00  0.00    -0.351 OA
HETATM   26  C   UNL     1       8.812  -6.503  -8.980  1.00  0.00     0.210 C 
ENDBRANCH   6  25
TORSDOF 6
