REMARK  3 active torsions:
REMARK  status: ('A' for Active; 'I' for Inactive)
REMARK    1  A    between atoms: C_3  and  C_4 
REMARK    2  A    between atoms: C_7  and  O_8 
REMARK    3  A    between atoms: C_15  and  O_16 
ROOT
HETATM    1  O   UNL     1      -2.329   1.864   0.017  1.00  0.00    -0.286 OA
HETATM    2  C   UNL     1      -1.861   0.732   0.015  1.00  0.00     0.197 A 
HETATM    3  C   UNL     1      -2.711  -0.487  -0.003  1.00  0.00     0.048 A 
HETATM    4  C   UNL     1      -2.096  -1.678  -0.006  1.00  0.00     0.159 A 
HETATM    5  O   UNL     1      -0.739  -1.897  -0.001  1.00  0.00    -0.321 OA
HETATM    6  C   UNL     1       0.084  -0.798   0.006  1.00  0.00     0.091 A 
HETATM    7  C   UNL     1       1.460  -1.034  -0.010  1.00  0.00     0.074 A 
HETATM    8  C   UNL     1       2.334   0.049   0.004  1.00  0.00     0.068 A 
HETATM    9  C   UNL     1       1.857   1.357   0.040  1.00  0.00     0.037 A 
HETATM   10  C   UNL     1       0.482   1.592   0.049  1.00  0.00     0.021 A 
HETATM   11  C   UNL     1      -0.404   0.509   0.026  1.00  0.00     0.049 A 
ENDROOT
BRANCH   3  12
HETATM   12  C   UNL     1      -4.175  -0.408  -0.041  1.00  0.00    -0.020 A 
HETATM   13  C   UNL     1      -4.919  -0.385   1.147  1.00  0.00     0.015 A 
HETATM   14  C   UNL     1      -6.316  -0.316   1.103  1.00  0.00     0.037 A 
HETATM   15  C   UNL     1      -6.961  -0.273  -0.129  1.00  0.00     0.065 A 
HETATM   16  C   UNL     1      -6.236  -0.300  -1.314  1.00  0.00     0.037 A 
HETATM   17  C   UNL     1      -4.843  -0.367  -1.272  1.00  0.00     0.015 A 
BRANCH  15  18
HETATM   18  O   UNL     1      -8.319  -0.199  -0.218  1.00  0.00    -0.361 OA
HETATM   19  H   UNL     1      -8.685  -0.115   0.678  1.00  0.00     0.217 HD
ENDBRANCH  15  18
ENDBRANCH   3  12
BRANCH   8  20
HETATM   20  O   UNL     1       3.686  -0.128  -0.020  1.00  0.00    -0.361 OA
HETATM   21  H   UNL     1       3.881  -1.078  -0.084  1.00  0.00     0.217 HD
ENDBRANCH   8  20
TORSDOF 3
