REMARK  5 active torsions:
REMARK  status: ('A' for Active; 'I' for Inactive)
REMARK    1  A    between atoms: C_2  and  C_3 
REMARK       I    between atoms: C_2  and  N_13 
REMARK    2  A    between atoms: C_3  and  C_4 
REMARK    3  A    between atoms: C_4  and  O_5 
REMARK    4  A    between atoms: C_4  and  C_6 
REMARK    5  A    between atoms: N_13  and  O_14 
ROOT
HETATM    1  C   UNL     1       1.933  -1.330  -2.052  1.00  0.00     0.163 C 
ENDROOT
BRANCH   1   2
HETATM    2  C   UNL     1       2.838  -0.650  -1.020  1.00  0.00     0.141 C 
BRANCH   2   3
HETATM    3  C   UNL     1       2.050   0.034   0.078  1.00  0.00     0.243 C 
HETATM    4  O   UNL     1       2.382  -0.019   1.264  1.00  0.00    -0.271 OA
HETATM    5  N   UNL     1       0.988   0.793  -0.342  1.00  0.00    -0.237 N 
HETATM    6  H   UNL     1       0.544   0.632  -1.248  1.00  0.00     0.197 HD
BRANCH   5   7
HETATM    7  O   UNL     1       0.187   1.365   0.673  1.00  0.00    -0.287 OA
HETATM    8  H   UNL     1       0.658   1.094   1.490  1.00  0.00     0.244 HD
ENDBRANCH   5   7
ENDBRANCH   2   3
ENDBRANCH   1   2
BRANCH   1   9
HETATM    9  O   UNL     1       1.152  -0.336  -2.731  1.00  0.00    -0.390 OA
HETATM   10  H   UNL     1       1.727   0.078  -3.404  1.00  0.00     0.210 HD
ENDBRANCH   1   9
BRANCH   1  11
HETATM   11  C   UNL     1       2.701  -2.136  -3.074  1.00  0.00     0.009 A 
HETATM   12  C   UNL     1       2.487  -3.515  -3.211  1.00  0.00     0.013 A 
HETATM   13  C   UNL     1       3.192  -4.252  -4.168  1.00  0.00     0.001 A 
HETATM   14  C   UNL     1       4.119  -3.624  -5.000  1.00  0.00     0.003 A 
HETATM   15  C   UNL     1       4.336  -2.254  -4.881  1.00  0.00     0.043 A 
HETATM   16  C   UNL     1       3.628  -1.528  -3.929  1.00  0.00     0.125 A 
HETATM   17  F   UNL     1       3.818  -0.202  -3.858  1.00  0.00    -0.205 F 
ENDBRANCH   1  11
TORSDOF 5
