REMARK  8 active torsions:
REMARK  status: ('A' for Active; 'I' for Inactive)
REMARK    1  A    between atoms: O_2  and  C_3 
REMARK    2  A    between atoms: C_6  and  C_7 
REMARK    3  A    between atoms: C_7  and  C_8 
REMARK    4  A    between atoms: C_8  and  C_9 
REMARK    5  A    between atoms: C_12  and  O_13 
REMARK    6  A    between atoms: C_14  and  O_15 
REMARK    7  A    between atoms: C_16  and  O_17 
REMARK    8  A    between atoms: C_19  and  O_20 
ROOT
HETATM    1  C   UNL     1       5.724  -5.510  -4.705  1.00  0.00    -0.022 A 
HETATM    2  C   UNL     1       6.852  -5.204  -5.484  1.00  0.00     0.013 A 
HETATM    3  C   UNL     1       7.626  -6.219  -6.060  1.00  0.00     0.040 A 
HETATM    4  C   UNL     1       7.278  -7.547  -5.845  1.00  0.00     0.101 A 
HETATM    5  C   UNL     1       6.174  -7.861  -5.064  1.00  0.00     0.133 A 
HETATM    6  C   UNL     1       5.399  -6.853  -4.501  1.00  0.00     0.107 A 
ENDROOT
BRANCH   1   7
HETATM    7  C   UNL     1       4.901  -4.404  -4.094  1.00  0.00     0.046 C 
BRANCH   7   8
HETATM    8  C   UNL     1       5.376  -4.033  -2.682  1.00  0.00     0.043 C 
BRANCH   8   9
HETATM    9  C   UNL     1       4.590  -2.918  -2.023  1.00  0.00    -0.055 A 
HETATM   10  C   UNL     1       3.225  -2.740  -2.248  1.00  0.00     0.010 A 
HETATM   11  C   UNL     1       2.517  -1.728  -1.601  1.00  0.00     0.040 A 
HETATM   12  C   UNL     1       3.141  -0.885  -0.673  1.00  0.00     0.101 A 
HETATM   13  C   UNL     1       4.512  -1.059  -0.422  1.00  0.00     0.102 A 
HETATM   14  C   UNL     1       5.220  -2.066  -1.102  1.00  0.00     0.046 A 
BRANCH  12  15
HETATM   15  O   UNL     1       2.475   0.136  -0.050  1.00  0.00    -0.353 OA
HETATM   16  C   UNL     1       1.062  -0.005   0.057  1.00  0.00     0.210 C 
ENDBRANCH  12  15
BRANCH  13  17
HETATM   17  O   UNL     1       5.301  -0.318   0.420  1.00  0.00    -0.353 OA
HETATM   18  C   UNL     1       4.672   0.217   1.579  1.00  0.00     0.210 C 
ENDBRANCH  13  17
ENDBRANCH   8   9
ENDBRANCH   7   8
ENDBRANCH   1   7
BRANCH   6  19
HETATM   19  O   UNL     1       4.307  -7.198  -3.753  1.00  0.00    -0.357 OA
HETATM   20  H   UNL     1       4.281  -8.176  -3.794  1.00  0.00     0.217 HD
ENDBRANCH   6  19
BRANCH   5  21
HETATM   21  O   UNL     1       5.831  -9.168  -4.837  1.00  0.00    -0.356 OA
HETATM   22  H   UNL     1       6.530  -9.678  -5.296  1.00  0.00     0.218 HD
ENDBRANCH   5  21
BRANCH   4  23
HETATM   23  O   UNL     1       7.992  -8.580  -6.386  1.00  0.00    -0.358 OA
HETATM   24  H   UNL     1       8.684  -8.201  -6.955  1.00  0.00     0.217 HD
ENDBRANCH   4  23
TORSDOF 8
