REMARK  5 active torsions:
REMARK  status: ('A' for Active; 'I' for Inactive)
REMARK    1  A    between atoms: C_2  and  C_3 
REMARK       I    between atoms: C_2  and  N_14 
REMARK    2  A    between atoms: C_3  and  C_4 
REMARK    3  A    between atoms: C_4  and  O_5 
REMARK    4  A    between atoms: C_4  and  C_6 
REMARK    5  A    between atoms: N_14  and  O_15 
ROOT
HETATM    1  C   UNL     1       2.115  -1.790   1.564  1.00  0.00     0.161 C 
ENDROOT
BRANCH   1   2
HETATM    2  C   UNL     1       3.048  -0.914   0.712  1.00  0.00     0.141 C 
BRANCH   2   3
HETATM    3  C   UNL     1       3.805  -1.683  -0.345  1.00  0.00     0.243 C 
HETATM    4  O   UNL     1       3.629  -2.870  -0.601  1.00  0.00    -0.271 OA
HETATM    5  N   UNL     1       4.703  -0.908  -1.041  1.00  0.00    -0.237 N 
HETATM    6  H   UNL     1       4.956   0.044  -0.803  1.00  0.00     0.197 HD
BRANCH   5   7
HETATM    7  O   UNL     1       5.502  -1.566  -1.998  1.00  0.00    -0.287 OA
HETATM    8  H   UNL     1       5.238  -2.505  -1.891  1.00  0.00     0.244 HD
ENDBRANCH   5   7
ENDBRANCH   2   3
ENDBRANCH   1   2
BRANCH   1   9
HETATM    9  O   UNL     1       1.092  -2.314   0.706  1.00  0.00    -0.390 OA
HETATM   10  H   UNL     1       1.546  -2.856   0.029  1.00  0.00     0.210 HD
ENDBRANCH   1   9
BRANCH   1  11
HETATM   11  C   UNL     1       2.776  -2.882   2.398  1.00  0.00    -0.006 A 
HETATM   12  C   UNL     1       2.469  -4.238   2.153  1.00  0.00     0.011 A 
HETATM   13  C   UNL     1       3.079  -5.271   2.865  1.00  0.00     0.002 A 
HETATM   14  C   UNL     1       4.014  -4.975   3.848  1.00  0.00     0.026 A 
HETATM   15  C   UNL     1       4.314  -3.645   4.143  1.00  0.00     0.056 A 
HETATM   16 CL   UNL     1       5.484  -3.365   5.389  1.00  0.00    -0.083 Cl
HETATM   17  C   UNL     1       3.684  -2.597   3.444  1.00  0.00     0.064 A 
HETATM   18 CL   UNL     1       3.990  -0.954   3.921  1.00  0.00    -0.082 Cl
ENDBRANCH   1  11
TORSDOF 5
