REMARK  5 active torsions:
REMARK  status: ('A' for Active; 'I' for Inactive)
REMARK    1  A    between atoms: C_2  and  C_3 
REMARK       I    between atoms: C_2  and  N_13 
REMARK    2  A    between atoms: C_3  and  C_4 
REMARK    3  A    between atoms: C_4  and  O_5 
REMARK    4  A    between atoms: C_4  and  C_6 
REMARK    5  A    between atoms: N_13  and  O_14 
ROOT
HETATM    1  C   UNL     1       2.112  -0.216   2.441  1.00  0.00     0.160 C 
ENDROOT
BRANCH   1   2
HETATM    2  C   UNL     1       3.017  -0.154   1.210  1.00  0.00     0.141 C 
BRANCH   2   3
HETATM    3  C   UNL     1       2.239  -0.003  -0.084  1.00  0.00     0.243 C 
HETATM    4  O   UNL     1       2.631   0.712  -1.007  1.00  0.00    -0.271 OA
HETATM    5  N   UNL     1       1.126  -0.795  -0.206  1.00  0.00    -0.237 N 
HETATM    6  H   UNL     1       0.619  -1.121   0.617  1.00  0.00     0.197 HD
BRANCH   5   7
HETATM    7  O   UNL     1       0.356  -0.609  -1.376  1.00  0.00    -0.287 OA
HETATM    8  H   UNL     1       0.883   0.057  -1.871  1.00  0.00     0.244 HD
ENDBRANCH   5   7
ENDBRANCH   2   3
ENDBRANCH   1   2
BRANCH   1   9
HETATM    9  O   UNL     1       1.254  -1.362   2.358  1.00  0.00    -0.390 OA
HETATM   10  H   UNL     1       1.817  -2.152   2.271  1.00  0.00     0.210 HD
ENDBRANCH   1   9
BRANCH   1  11
HETATM   11  C   UNL     1       2.899  -0.247   3.739  1.00  0.00    -0.029 A 
HETATM   12  C   UNL     1       3.224   0.963   4.379  1.00  0.00     0.013 A 
HETATM   13  C   UNL     1       3.938   0.965   5.580  1.00  0.00     0.043 A 
HETATM   14  C   UNL     1       4.334  -0.239   6.146  1.00  0.00     0.116 A 
HETATM   15  F   UNL     1       5.011  -0.237   7.302  1.00  0.00    -0.206 F 
HETATM   16  C   UNL     1       4.038  -1.446   5.531  1.00  0.00     0.043 A 
HETATM   17  C   UNL     1       3.328  -1.451   4.328  1.00  0.00     0.013 A 
ENDBRANCH   1  11
TORSDOF 5
