REMARK  6 active torsions:
REMARK  status: ('A' for Active; 'I' for Inactive)
REMARK    1  A    between atoms: O_2  and  C_3 
REMARK    2  A    between atoms: C_9  and  C_10 
REMARK    3  A    between atoms: C_10  and  O_11 
REMARK    4  A    between atoms: C_10  and  C_12 
REMARK    5  A    between atoms: C_12  and  C_13 
REMARK       I    between atoms: C_13  and  N_15 
REMARK    6  A    between atoms: N_15  and  O_16 
ROOT
HETATM    1  C   UNL     1       4.334  -1.130   1.298  1.00  0.00     0.162 C 
ENDROOT
BRANCH   1   2
HETATM    2  C   UNL     1       3.954  -1.607  -0.095  1.00  0.00     0.007 A 
HETATM    3  C   UNL     1       2.950  -1.008  -0.881  1.00  0.00     0.077 A 
HETATM    4  C   UNL     1       2.700  -1.478  -2.179  1.00  0.00     0.040 A 
HETATM    5  C   UNL     1       3.420  -2.556  -2.694  1.00  0.00     0.045 A 
HETATM    6  C   UNL     1       4.395  -3.158  -1.915  1.00  0.00     0.117 A 
HETATM    7  F   UNL     1       5.088  -4.192  -2.408  1.00  0.00    -0.206 F 
HETATM    8  C   UNL     1       4.669  -2.694  -0.635  1.00  0.00     0.055 A 
BRANCH   3   9
HETATM    9  O   UNL     1       2.292   0.063  -0.326  1.00  0.00    -0.355 OA
HETATM   10  C   UNL     1       1.022   0.375  -0.897  1.00  0.00     0.210 C 
ENDBRANCH   3   9
ENDBRANCH   1   2
BRANCH   1  11
HETATM   11  O   UNL     1       4.792   0.228   1.221  1.00  0.00    -0.390 OA
HETATM   12  H   UNL     1       4.161   0.701   0.647  1.00  0.00     0.210 HD
ENDBRANCH   1  11
BRANCH   1  13
HETATM   13  C   UNL     1       3.241  -1.185   2.362  1.00  0.00     0.141 C 
BRANCH  13  14
HETATM   14  C   UNL     1       2.764  -2.577   2.684  1.00  0.00     0.243 C 
HETATM   15  O   UNL     1       3.211  -3.612   2.200  1.00  0.00    -0.271 OA
HETATM   16  N   UNL     1       1.755  -2.589   3.619  1.00  0.00    -0.237 N 
HETATM   17  H   UNL     1       1.263  -1.766   3.949  1.00  0.00     0.197 HD
BRANCH  16  18
HETATM   18  O   UNL     1       1.192  -3.844   3.929  1.00  0.00    -0.287 OA
HETATM   19  H   UNL     1       1.707  -4.454   3.357  1.00  0.00     0.244 HD
ENDBRANCH  16  18
ENDBRANCH  13  14
ENDBRANCH   1  13
TORSDOF 6
