REMARK  6 active torsions:
REMARK  status: ('A' for Active; 'I' for Inactive)
REMARK    1  A    between atoms: O_2  and  C_3 
REMARK    2  A    between atoms: C_8  and  C_9 
REMARK    3  A    between atoms: C_9  and  O_10 
REMARK    4  A    between atoms: C_9  and  C_11 
REMARK    5  A    between atoms: C_11  and  C_12 
REMARK       I    between atoms: C_12  and  N_14 
REMARK    6  A    between atoms: N_14  and  O_15 
ROOT
HETATM    1  C   UNL     1       4.297  -1.826   0.629  1.00  0.00     0.162 C 
ENDROOT
BRANCH   1   2
HETATM    2  C   UNL     1       3.989  -1.468  -0.815  1.00  0.00     0.004 A 
HETATM    3  C   UNL     1       2.963  -0.580  -1.193  1.00  0.00     0.077 A 
HETATM    4  C   UNL     1       2.732  -0.321  -2.551  1.00  0.00     0.037 A 
HETATM    5  C   UNL     1       3.505  -0.939  -3.535  1.00  0.00     0.003 A 
HETATM    6  C   UNL     1       4.526  -1.810  -3.173  1.00  0.00     0.001 A 
HETATM    7  C   UNL     1       4.767  -2.067  -1.825  1.00  0.00     0.012 A 
BRANCH   3   8
HETATM    8  O   UNL     1       2.273   0.025  -0.172  1.00  0.00    -0.355 OA
HETATM    9  C   UNL     1       1.011   0.592  -0.516  1.00  0.00     0.210 C 
ENDBRANCH   3   8
ENDBRANCH   1   2
BRANCH   1  10
HETATM   10  O   UNL     1       4.654  -0.641   1.356  1.00  0.00    -0.390 OA
HETATM   11  H   UNL     1       4.053   0.062   1.046  1.00  0.00     0.210 HD
ENDBRANCH   1  10
BRANCH   1  12
HETATM   12  C   UNL     1       3.168  -2.516   1.397  1.00  0.00     0.141 C 
BRANCH  12  13
HETATM   13  C   UNL     1       2.780  -3.864   0.851  1.00  0.00     0.243 C 
HETATM   14  O   UNL     1       3.340  -4.448  -0.075  1.00  0.00    -0.271 OA
HETATM   15  N   UNL     1       1.714  -4.425   1.515  1.00  0.00    -0.237 N 
HETATM   16  H   UNL     1       1.213  -3.997   2.285  1.00  0.00     0.197 HD
BRANCH  15  17
HETATM   17  O   UNL     1       1.264  -5.681   1.058  1.00  0.00    -0.287 OA
HETATM   18  H   UNL     1       1.852  -5.846   0.288  1.00  0.00     0.244 HD
ENDBRANCH  15  17
ENDBRANCH  12  13
ENDBRANCH   1  12
TORSDOF 6
