REMARK  6 active torsions:
REMARK  status: ('A' for Active; 'I' for Inactive)
REMARK    1  A    between atoms: C_2  and  C_3 
REMARK       I    between atoms: C_2  and  N_16 
REMARK    2  A    between atoms: C_3  and  C_4 
REMARK    3  A    between atoms: C_4  and  O_5 
REMARK    4  A    between atoms: C_4  and  C_6 
REMARK    5  A    between atoms: C_9  and  C_10 
REMARK    6  A    between atoms: N_16  and  O_17 
ROOT
HETATM    1  C   UNL     1       2.781  -3.572  -1.213  1.00  0.00    -0.029 A 
HETATM    2  C   UNL     1       4.087  -3.552  -1.720  1.00  0.00     0.010 A 
HETATM    3  C   UNL     1       4.743  -4.740  -2.062  1.00  0.00     0.017 A 
HETATM    4  C   UNL     1       4.109  -5.981  -1.910  1.00  0.00     0.047 A 
HETATM    5  C   UNL     1       2.807  -6.009  -1.397  1.00  0.00     0.017 A 
HETATM    6  C   UNL     1       2.154  -4.821  -1.048  1.00  0.00     0.010 A 
ENDROOT
BRANCH   1   7
HETATM    7  C   UNL     1       2.004  -2.316  -0.852  1.00  0.00     0.160 C 
BRANCH   7   8
HETATM    8  C   UNL     1       2.736  -0.988  -1.066  1.00  0.00     0.141 C 
BRANCH   8   9
HETATM    9  C   UNL     1       1.952   0.221  -0.601  1.00  0.00     0.243 C 
HETATM   10  O   UNL     1       2.489   1.177  -0.043  1.00  0.00    -0.271 OA
HETATM   11  N   UNL     1       0.623   0.233  -0.931  1.00  0.00    -0.237 N 
HETATM   12  H   UNL     1       0.121  -0.626  -1.170  1.00  0.00     0.197 HD
BRANCH  11  13
HETATM   13  O   UNL     1      -0.138   1.320  -0.451  1.00  0.00    -0.287 OA
HETATM   14  H   UNL     1       0.545   1.880  -0.023  1.00  0.00     0.244 HD
ENDBRANCH  11  13
ENDBRANCH   8   9
ENDBRANCH   7   8
BRANCH   7  15
HETATM   15  O   UNL     1       0.813  -2.296  -1.658  1.00  0.00    -0.390 OA
HETATM   16  H   UNL     1       1.036  -2.707  -2.515  1.00  0.00     0.210 HD
ENDBRANCH   7  15
ENDBRANCH   1   7
BRANCH   4  17
HETATM   17  C   UNL     1       4.807  -7.265  -2.289  1.00  0.00     0.417 C 
HETATM   18  F   UNL     1       6.061  -7.078  -2.786  1.00  0.00    -0.166 F 
HETATM   19  F   UNL     1       4.947  -8.114  -1.233  1.00  0.00    -0.166 F 
HETATM   20  F   UNL     1       4.129  -7.962  -3.242  1.00  0.00    -0.166 F 
ENDBRANCH   4  17
TORSDOF 6
