REMARK  6 active torsions:
REMARK  status: ('A' for Active; 'I' for Inactive)
REMARK    1  A    between atoms: C_2  and  C_3 
REMARK       I    between atoms: C_2  and  N_15 
REMARK    2  A    between atoms: C_3  and  C_4 
REMARK    3  A    between atoms: C_4  and  O_5 
REMARK    4  A    between atoms: C_4  and  C_6 
REMARK    5  A    between atoms: C_13  and  O_14 
REMARK    6  A    between atoms: N_15  and  O_16 
ROOT
HETATM    1  C   UNL     1       2.754   3.139  -2.197  1.00  0.00     0.007 A 
HETATM    2  C   UNL     1       2.534   4.504  -1.926  1.00  0.00     0.036 A 
HETATM    3  C   UNL     1       3.150   5.504  -2.679  1.00  0.00     0.036 A 
HETATM    4 CL   UNL     1       2.858   7.157  -2.298  1.00  0.00    -0.084 Cl
HETATM    5  C   UNL     1       3.993   5.179  -3.735  1.00  0.00     0.050 A 
HETATM    6  C   UNL     1       4.200   3.836  -4.040  1.00  0.00     0.069 A 
HETATM    7 CL   UNL     1       5.231   3.431  -5.365  1.00  0.00    -0.081 Cl
HETATM    8  C   UNL     1       3.590   2.826  -3.284  1.00  0.00     0.096 A 
ENDROOT
BRANCH   1   9
HETATM    9  C   UNL     1       2.082   2.070  -1.353  1.00  0.00     0.162 C 
BRANCH   9  10
HETATM   10  C   UNL     1       3.034   1.110  -0.627  1.00  0.00     0.141 C 
BRANCH  10  11
HETATM   11  C   UNL     1       3.922   1.837   0.371  1.00  0.00     0.243 C 
HETATM   12  O   UNL     1       3.572   2.866   0.946  1.00  0.00    -0.271 OA
HETATM   13  N   UNL     1       5.110   1.205   0.606  1.00  0.00    -0.237 N 
HETATM   14  H   UNL     1       5.372   0.305   0.210  1.00  0.00     0.197 HD
BRANCH  13  15
HETATM   15  O   UNL     1       5.989   1.750   1.559  1.00  0.00    -0.287 OA
HETATM   16  H   UNL     1       5.892   2.715   1.420  1.00  0.00     0.244 HD
ENDBRANCH  13  15
ENDBRANCH  10  11
ENDBRANCH   9  10
BRANCH   9  17
HETATM   17  O   UNL     1       1.176   2.636  -0.398  1.00  0.00    -0.390 OA
HETATM   18  H   UNL     1       1.730   3.020   0.319  1.00  0.00     0.210 HD
ENDBRANCH   9  17
ENDBRANCH   1   9
BRANCH   8  19
HETATM   19  O   UNL     1       3.783   1.510  -3.615  1.00  0.00    -0.358 OA
HETATM   20  H   UNL     1       4.319   1.486  -4.433  1.00  0.00     0.217 HD
ENDBRANCH   8  19
TORSDOF 6
