REMARK  5 active torsions:
REMARK  status: ('A' for Active; 'I' for Inactive)
REMARK    1  A    between atoms: C_2  and  C_3 
REMARK       I    between atoms: C_2  and  N_12 
REMARK    2  A    between atoms: C_3  and  C_4 
REMARK    3  A    between atoms: C_4  and  O_5 
REMARK    4  A    between atoms: C_4  and  C_6 
REMARK    5  A    between atoms: N_12  and  O_13 
ROOT
HETATM    1  C   UNL     1       1.925   1.932   1.439  1.00  0.00     0.160 C 
ENDROOT
BRANCH   1   2
HETATM    2  C   UNL     1       2.874   0.961   0.737  1.00  0.00     0.141 C 
BRANCH   2   3
HETATM    3  C   UNL     1       2.114  -0.050  -0.098  1.00  0.00     0.243 C 
HETATM    4  O   UNL     1       2.450  -0.362  -1.239  1.00  0.00    -0.271 OA
HETATM    5  N   UNL     1       1.058  -0.660   0.539  1.00  0.00    -0.237 N 
HETATM    6  H   UNL     1       0.606  -0.207   1.337  1.00  0.00     0.197 HD
BRANCH   5   7
HETATM    7  O   UNL     1       0.256  -1.516  -0.249  1.00  0.00    -0.287 OA
HETATM    8  H   UNL     1       0.716  -1.487  -1.121  1.00  0.00     0.244 HD
ENDBRANCH   5   7
ENDBRANCH   2   3
ENDBRANCH   1   2
BRANCH   1   9
HETATM    9  O   UNL     1       1.120   1.194   2.374  1.00  0.00    -0.390 OA
HETATM   10  H   UNL     1       1.444   1.380   3.275  1.00  0.00     0.210 HD
ENDBRANCH   1   9
BRANCH   1  11
HETATM   11  C   UNL     1       2.624   3.058   2.172  1.00  0.00    -0.029 A 
HETATM   12  C   UNL     1       2.342   4.388   1.828  1.00  0.00     0.010 A 
HETATM   13  C   UNL     1       2.899   5.445   2.549  1.00  0.00     0.001 A 
HETATM   14  C   UNL     1       3.743   5.186   3.628  1.00  0.00     0.000 A 
HETATM   15  C   UNL     1       4.046   3.872   3.969  1.00  0.00     0.001 A 
HETATM   16  C   UNL     1       3.501   2.815   3.242  1.00  0.00     0.010 A 
ENDBRANCH   1  11
TORSDOF 5
