REMARK  6 active torsions:
REMARK  status: ('A' for Active; 'I' for Inactive)
REMARK    1  A    between atoms: C_2  and  C_3 
REMARK       I    between atoms: C_2  and  N_16 
REMARK    2  A    between atoms: C_3  and  C_4 
REMARK    3  A    between atoms: C_4  and  O_5 
REMARK    4  A    between atoms: C_4  and  C_6 
REMARK    5  A    between atoms: C_10  and  C_11 
REMARK    6  A    between atoms: N_16  and  O_17 
ROOT
HETATM    1  C   UNL     1       2.736   0.338   3.687  1.00  0.00    -0.028 A 
HETATM    2  C   UNL     1       3.022   1.622   4.174  1.00  0.00     0.010 A 
HETATM    3  C   UNL     1       3.614   1.801   5.425  1.00  0.00     0.001 A 
HETATM    4  C   UNL     1       3.924   0.697   6.216  1.00  0.00     0.016 A 
HETATM    5  C   UNL     1       3.643  -0.599   5.762  1.00  0.00     0.048 A 
HETATM    6  C   UNL     1       3.056  -0.767   4.494  1.00  0.00     0.025 A 
ENDROOT
BRANCH   1   7
HETATM    7  C   UNL     1       2.106   0.186   2.315  1.00  0.00     0.160 C 
BRANCH   7   8
HETATM    8  C   UNL     1       2.955  -0.615   1.331  1.00  0.00     0.141 C 
BRANCH   8   9
HETATM    9  C   UNL     1       4.245   0.085   0.998  1.00  0.00     0.243 C 
HETATM   10  O   UNL     1       4.378   1.300   0.900  1.00  0.00    -0.271 OA
HETATM   11  N   UNL     1       5.284  -0.786   0.744  1.00  0.00    -0.237 N 
HETATM   12  H   UNL     1       5.200  -1.793   0.661  1.00  0.00     0.197 HD
BRANCH  11  13
HETATM   13  O   UNL     1       6.501  -0.211   0.324  1.00  0.00    -0.287 OA
HETATM   14  H   UNL     1       6.285   0.745   0.286  1.00  0.00     0.244 HD
ENDBRANCH  11  13
ENDBRANCH   8   9
ENDBRANCH   7   8
BRANCH   7  15
HETATM   15  O   UNL     1       0.834  -0.456   2.452  1.00  0.00    -0.390 OA
HETATM   16  H   UNL     1       0.979  -1.363   2.768  1.00  0.00     0.210 HD
ENDBRANCH   7  15
ENDBRANCH   1   7
BRANCH   5  17
HETATM   17  C   UNL     1       3.952  -1.806   6.613  1.00  0.00     0.417 C 
HETATM   18  F   UNL     1       4.466  -1.504   7.837  1.00  0.00    -0.166 F 
HETATM   19  F   UNL     1       2.848  -2.569   6.848  1.00  0.00    -0.166 F 
HETATM   20  F   UNL     1       4.855  -2.637   6.022  1.00  0.00    -0.166 F 
ENDBRANCH   5  17
TORSDOF 6
