REMARK  5 active torsions:
REMARK  status: ('A' for Active; 'I' for Inactive)
REMARK    1  A    between atoms: C_2  and  C_3 
REMARK       I    between atoms: C_2  and  N_13 
REMARK    2  A    between atoms: C_3  and  C_4 
REMARK    3  A    between atoms: C_4  and  O_5 
REMARK    4  A    between atoms: C_4  and  C_6 
REMARK    5  A    between atoms: N_13  and  O_14 
ROOT
HETATM    1  C   UNL     1       2.012   1.099   2.103  1.00  0.00     0.160 C 
ENDROOT
BRANCH   1   2
HETATM    2  C   UNL     1       2.959   0.555   1.035  1.00  0.00     0.141 C 
BRANCH   2   3
HETATM    3  C   UNL     1       3.824   1.635   0.433  1.00  0.00     0.243 C 
HETATM    4  O   UNL     1       3.484   2.812   0.321  1.00  0.00    -0.271 OA
HETATM    5  N   UNL     1       5.027   1.177  -0.037  1.00  0.00    -0.237 N 
HETATM    6  H   UNL     1       5.401   0.246   0.118  1.00  0.00     0.197 HD
BRANCH   5   7
HETATM    7  O   UNL     1       5.910   2.138  -0.572  1.00  0.00    -0.287 OA
HETATM    8  H   UNL     1       5.394   2.970  -0.481  1.00  0.00     0.244 HD
ENDBRANCH   5   7
ENDBRANCH   2   3
ENDBRANCH   1   2
BRANCH   1   9
HETATM    9  O   UNL     1       1.158   0.028   2.516  1.00  0.00    -0.390 OA
HETATM   10  H   UNL     1       1.609  -0.479   3.209  1.00  0.00     0.210 HD
ENDBRANCH   1   9
BRANCH   1  11
HETATM   11  C   UNL     1       2.742   1.686   3.299  1.00  0.00    -0.029 A 
HETATM   12  C   UNL     1       2.544   3.038   3.631  1.00  0.00     0.011 A 
HETATM   13  C   UNL     1       3.258   3.634   4.672  1.00  0.00     0.024 A 
HETATM   14  C   UNL     1       4.179   2.882   5.394  1.00  0.00     0.034 A 
HETATM   15 CL   UNL     1       5.097   3.623   6.647  1.00  0.00    -0.084 Cl
HETATM   16  C   UNL     1       4.377   1.538   5.096  1.00  0.00     0.024 A 
HETATM   17  C   UNL     1       3.659   0.938   4.057  1.00  0.00     0.011 A 
ENDBRANCH   1  11
TORSDOF 5
