REMARK  6 active torsions:
REMARK  status: ('A' for Active; 'I' for Inactive)
REMARK    1  A    between atoms: O_2  and  C_3 
REMARK    2  A    between atoms: C_7  and  C_8 
REMARK    3  A    between atoms: C_8  and  O_9 
REMARK    4  A    between atoms: C_8  and  C_10 
REMARK    5  A    between atoms: C_10  and  C_11 
REMARK       I    between atoms: C_11  and  N_13 
REMARK    6  A    between atoms: N_13  and  O_14 
ROOT
HETATM    1  C   UNL     1       6.239  -0.061  -3.197  1.00  0.00     0.160 C 
ENDROOT
BRANCH   1   2
HETATM    2  C   UNL     1       4.948   0.556  -2.692  1.00  0.00    -0.027 A 
HETATM    3  C   UNL     1       4.470   1.741  -3.271  1.00  0.00     0.010 A 
HETATM    4  C   UNL     1       3.297   2.337  -2.809  1.00  0.00     0.003 A 
HETATM    5  C   UNL     1       2.584   1.765  -1.753  1.00  0.00     0.037 A 
HETATM    6  C   UNL     1       3.040   0.586  -1.163  1.00  0.00     0.068 A 
HETATM    7  C   UNL     1       4.212  -0.014  -1.639  1.00  0.00     0.046 A 
BRANCH   6   8
HETATM    8  O   UNL     1       2.445  -0.074  -0.123  1.00  0.00    -0.356 OA
HETATM    9  C   UNL     1       1.296   0.538   0.450  1.00  0.00     0.210 C 
ENDBRANCH   6   8
ENDBRANCH   1   2
BRANCH   1  10
HETATM   10  O   UNL     1       7.207  -0.106  -2.139  1.00  0.00    -0.390 OA
HETATM   11  H   UNL     1       6.746   0.006  -1.292  1.00  0.00     0.210 HD
ENDBRANCH   1  10
BRANCH   1  12
HETATM   12  C   UNL     1       6.085  -1.488  -3.718  1.00  0.00     0.141 C 
BRANCH  12  13
HETATM   13  C   UNL     1       5.224  -1.570  -4.949  1.00  0.00     0.243 C 
HETATM   14  O   UNL     1       5.104  -0.670  -5.780  1.00  0.00    -0.271 OA
HETATM   15  N   UNL     1       4.632  -2.801  -5.117  1.00  0.00    -0.237 N 
HETATM   16  H   UNL     1       4.452  -3.429  -4.338  1.00  0.00     0.197 HD
BRANCH  15  17
HETATM   17  O   UNL     1       3.749  -2.910  -6.216  1.00  0.00    -0.287 OA
HETATM   18  H   UNL     1       3.827  -2.028  -6.638  1.00  0.00     0.244 HD
ENDBRANCH  15  17
ENDBRANCH  12  13
ENDBRANCH   1  12
TORSDOF 6
