REMARK  5 active torsions:
REMARK  status: ('A' for Active; 'I' for Inactive)
REMARK    1  A    between atoms: O_1  and  C_2 
REMARK    2  A    between atoms: C_5  and  C_6 
REMARK    3  A    between atoms: C_6  and  C_7 
REMARK    4  A    between atoms: C_7  and  C_8 
REMARK    5  A    between atoms: C_16  and  O_17 
ROOT
HETATM    1  C   UNL     1       0.476  -0.816   0.097  1.00  0.00     0.098 A 
HETATM    2  C   UNL     1      -0.078  -0.452  -1.128  1.00  0.00     0.040 A 
HETATM    3  C   UNL     1      -1.263   0.290  -1.160  1.00  0.00     0.010 A 
HETATM    4  C   UNL     1      -1.899   0.677   0.030  1.00  0.00    -0.055 A 
HETATM    5  C   UNL     1      -1.335   0.295   1.257  1.00  0.00     0.046 A 
HETATM    6  C   UNL     1      -0.152  -0.445   1.285  1.00  0.00     0.099 A 
ENDROOT
BRANCH   4   7
HETATM    7  C   UNL     1      -3.173   1.489  -0.006  1.00  0.00     0.043 C 
BRANCH   7   8
HETATM    8  C   UNL     1      -4.427   0.608  -0.009  1.00  0.00     0.043 C 
BRANCH   8   9
HETATM    9  C   UNL     1      -5.699   1.426  -0.041  1.00  0.00    -0.058 A 
HETATM   10  C   UNL     1      -6.262   1.814  -1.267  1.00  0.00     0.010 A 
HETATM   11  C   UNL     1      -7.439   2.564  -1.297  1.00  0.00     0.043 A 
HETATM   12  C   UNL     1      -8.051   2.931  -0.105  1.00  0.00     0.116 A 
HETATM   13  F   UNL     1      -9.183   3.646  -0.136  1.00  0.00    -0.206 F 
HETATM   14  C   UNL     1      -7.505   2.566   1.119  1.00  0.00     0.043 A 
HETATM   15  C   UNL     1      -6.327   1.816   1.152  1.00  0.00     0.010 A 
ENDBRANCH   8   9
ENDBRANCH   7   8
ENDBRANCH   4   7
BRANCH   6  16
HETATM   16  O   UNL     1       0.407  -0.809   2.479  1.00  0.00    -0.358 OA
HETATM   17  H   UNL     1      -0.127  -0.448   3.202  1.00  0.00     0.217 HD
ENDBRANCH   6  16
BRANCH   1  18
HETATM   18  O   UNL     1       1.637  -1.534   0.147  1.00  0.00    -0.358 OA
HETATM   19  H   UNL     1       1.944  -1.704  -0.756  1.00  0.00     0.217 HD
ENDBRANCH   1  18
TORSDOF 5
