REMARK  5 active torsions:
REMARK  status: ('A' for Active; 'I' for Inactive)
REMARK    1  A    between atoms: C_2  and  C_3 
REMARK       I    between atoms: C_2  and  N_13 
REMARK    2  A    between atoms: C_3  and  C_4 
REMARK    3  A    between atoms: C_4  and  O_5 
REMARK    4  A    between atoms: C_4  and  C_6 
REMARK    5  A    between atoms: N_13  and  O_14 
ROOT
HETATM    1  C   UNL     1       2.276  -2.486   0.345  1.00  0.00     0.161 C 
ENDROOT
BRANCH   1   2
HETATM    2  C   UNL     1       2.976  -1.136   0.168  1.00  0.00     0.141 C 
BRANCH   2   3
HETATM    3  C   UNL     1       3.923  -1.085  -1.010  1.00  0.00     0.243 C 
HETATM    4  O   UNL     1       4.080  -1.994  -1.819  1.00  0.00    -0.271 OA
HETATM    5  N   UNL     1       4.570   0.122  -1.121  1.00  0.00    -0.237 N 
HETATM    6  H   UNL     1       4.548   0.857  -0.422  1.00  0.00     0.197 HD
BRANCH   5   7
HETATM    7  O   UNL     1       5.502   0.261  -2.170  1.00  0.00    -0.287 OA
HETATM    8  H   UNL     1       5.499  -0.632  -2.578  1.00  0.00     0.244 HD
ENDBRANCH   5   7
ENDBRANCH   2   3
ENDBRANCH   1   2
BRANCH   1   9
HETATM    9  O   UNL     1       1.391  -2.614  -0.784  1.00  0.00    -0.390 OA
HETATM   10  H   UNL     1       1.963  -2.844  -1.546  1.00  0.00     0.210 HD
ENDBRANCH   1   9
BRANCH   1  11
HETATM   11  C   UNL     1       3.047  -3.786   0.549  1.00  0.00    -0.007 A 
HETATM   12  C   UNL     1       2.422  -4.982   0.117  1.00  0.00     0.011 A 
HETATM   13  C   UNL     1       3.025  -6.234   0.257  1.00  0.00     0.001 A 
HETATM   14  C   UNL     1       4.269  -6.335   0.859  1.00  0.00     0.002 A 
HETATM   15  C   UNL     1       4.889  -5.186   1.341  1.00  0.00     0.024 A 
HETATM   16  C   UNL     1       4.283  -3.925   1.206  1.00  0.00     0.042 A 
HETATM   17 CL   UNL     1       5.135  -2.620   1.948  1.00  0.00    -0.084 Cl
ENDBRANCH   1  11
TORSDOF 5
