REMARK  8 active torsions:
REMARK  status: ('A' for Active; 'I' for Inactive)
REMARK    1  A    between atoms: C_2  and  C_3 
REMARK       I    between atoms: C_2  and  N_20 
REMARK    2  A    between atoms: C_3  and  C_4 
REMARK    3  A    between atoms: C_4  and  O_5 
REMARK    4  A    between atoms: C_4  and  C_6 
REMARK    5  A    between atoms: C_9  and  O_10 
REMARK    6  A    between atoms: O_10  and  C_11 
REMARK    7  A    between atoms: C_11  and  C_12 
REMARK    8  A    between atoms: N_20  and  O_21 
ROOT
HETATM    1  C   UNL     1       2.640  -2.790   2.442  1.00  0.00    -0.029 A 
HETATM    2  C   UNL     1       3.402  -2.377   3.549  1.00  0.00     0.012 A 
HETATM    3  C   UNL     1       3.946  -3.315   4.435  1.00  0.00     0.037 A 
HETATM    4  C   UNL     1       3.720  -4.676   4.242  1.00  0.00     0.069 A 
HETATM    5  C   UNL     1       3.011  -5.098   3.119  1.00  0.00     0.037 A 
HETATM    6  C   UNL     1       2.460  -4.165   2.242  1.00  0.00     0.012 A 
ENDROOT
BRANCH   1   7
HETATM    7  C   UNL     1       2.011  -1.769   1.510  1.00  0.00     0.160 C 
BRANCH   7   8
HETATM    8  C   UNL     1       3.016  -0.835   0.833  1.00  0.00     0.141 C 
BRANCH   8   9
HETATM    9  C   UNL     1       3.983  -1.585  -0.054  1.00  0.00     0.243 C 
HETATM   10  O   UNL     1       3.728  -2.664  -0.590  1.00  0.00    -0.271 OA
HETATM   11  N   UNL     1       5.162  -0.915  -0.282  1.00  0.00    -0.237 N 
HETATM   12  H   UNL     1       5.505  -0.172   0.315  1.00  0.00     0.197 HD
BRANCH  11  13
HETATM   13  O   UNL     1       6.133  -1.617  -1.031  1.00  0.00    -0.287 OA
HETATM   14  H   UNL     1       5.688  -2.474  -1.212  1.00  0.00     0.244 HD
ENDBRANCH  11  13
ENDBRANCH   8   9
ENDBRANCH   7   8
BRANCH   7  15
HETATM   15  O   UNL     1       1.179  -2.375   0.518  1.00  0.00    -0.390 OA
HETATM   16  H   UNL     1       1.779  -2.853  -0.092  1.00  0.00     0.210 HD
ENDBRANCH   7  15
ENDBRANCH   1   7
BRANCH   4  17
HETATM   17  O   UNL     1       4.212  -5.514   5.209  1.00  0.00    -0.347 OA
BRANCH  17  18
HETATM   18  C   UNL     1       3.539  -6.774   5.287  1.00  0.00     0.214 C 
BRANCH  18  19
HETATM   19  C   UNL     1       3.736  -7.390   6.646  1.00  0.00    -0.034 A 
HETATM   20  C   UNL     1       2.634  -7.595   7.490  1.00  0.00     0.009 A 
HETATM   21  C   UNL     1       2.798  -8.210   8.732  1.00  0.00     0.001 A 
HETATM   22  C   UNL     1       4.064  -8.619   9.140  1.00  0.00     0.000 A 
HETATM   23  C   UNL     1       5.168  -8.410   8.314  1.00  0.00     0.001 A 
HETATM   24  C   UNL     1       5.007  -7.796   7.072  1.00  0.00     0.009 A 
ENDBRANCH  18  19
ENDBRANCH  17  18
ENDBRANCH   4  17
TORSDOF 8
