REMARK  3 active torsions:
REMARK  status: ('A' for Active; 'I' for Inactive)
REMARK    1  A    between atoms: N_2  and  C_4 
REMARK    2  A    between atoms: C_7  and  C_8 
REMARK       I    between atoms: C_8  and  N_10 
REMARK    3  A    between atoms: N_10  and  O_11 
ROOT
HETATM    1  C   UNL     1       3.283   0.624   1.000  1.00  0.00     0.029 A 
HETATM    2  C   UNL     1       2.823   0.417   2.312  1.00  0.00     0.030 A 
HETATM    3  C   UNL     1       3.563   0.815   3.439  1.00  0.00     0.019 A 
HETATM    4  C   UNL     1       4.790   1.457   3.276  1.00  0.00     0.034 A 
HETATM    5  C   UNL     1       5.267   1.691   1.988  1.00  0.00     0.019 A 
HETATM    6  C   UNL     1       4.517   1.289   0.876  1.00  0.00     0.030 A 
ENDROOT
BRANCH   4   7
HETATM    7  C   UNL     1       5.632   1.869   4.428  1.00  0.00     0.275 C 
HETATM    8  O   UNL     1       6.850   1.979   4.323  1.00  0.00    -0.265 OA
HETATM    9  N   UNL     1       4.973   2.167   5.601  1.00  0.00    -0.233 N 
HETATM   10  H   UNL     1       3.995   2.430   5.624  1.00  0.00     0.197 HD
BRANCH   9  11
HETATM   11  O   UNL     1       5.792   2.721   6.615  1.00  0.00    -0.287 OA
HETATM   12  H   UNL     1       6.687   2.673   6.208  1.00  0.00     0.244 HD
ENDBRANCH   9  11
ENDBRANCH   4   7
BRANCH   1  13
HETATM   13  N   UNL     1       2.562   0.213  -0.122  1.00  0.00    -0.390 N 
HETATM   14  C   UNL     1       1.274  -0.457   0.025  1.00  0.00     0.149 C 
HETATM   15  C   UNL     1       3.275  -0.000  -1.380  1.00  0.00     0.149 C 
ENDBRANCH   1  13
TORSDOF 3
