REMARK  6 active torsions:
REMARK  status: ('A' for Active; 'I' for Inactive)
REMARK    1  A    between atoms: C_2  and  C_3 
REMARK       I    between atoms: C_2  and  N_13 
REMARK    2  A    between atoms: C_3  and  C_4 
REMARK    3  A    between atoms: C_4  and  O_5 
REMARK    4  A    between atoms: C_4  and  C_6 
REMARK    5  A    between atoms: C_10  and  O_11 
REMARK    6  A    between atoms: N_13  and  O_14 
ROOT
HETATM    1  C   UNL     1       2.104   1.876   1.542  1.00  0.00     0.160 C 
ENDROOT
BRANCH   1   2
HETATM    2  C   UNL     1       3.014   0.928   0.758  1.00  0.00     0.141 C 
BRANCH   2   3
HETATM    3  C   UNL     1       2.237  -0.051  -0.096  1.00  0.00     0.243 C 
HETATM    4  O   UNL     1       2.579  -0.349  -1.240  1.00  0.00    -0.271 OA
HETATM    5  N   UNL     1       1.176  -0.662   0.525  1.00  0.00    -0.237 N 
HETATM    6  H   UNL     1       0.728  -0.237   1.341  1.00  0.00     0.197 HD
BRANCH   5   7
HETATM    7  O   UNL     1       0.386  -1.516  -0.276  1.00  0.00    -0.287 OA
HETATM    8  H   UNL     1       0.876  -1.516  -1.127  1.00  0.00     0.244 HD
ENDBRANCH   5   7
ENDBRANCH   2   3
ENDBRANCH   1   2
BRANCH   1   9
HETATM    9  O   UNL     1       1.312   1.109   2.463  1.00  0.00    -0.390 OA
HETATM   10  H   UNL     1       1.699   1.202   3.352  1.00  0.00     0.210 HD
ENDBRANCH   1   9
BRANCH   1  11
HETATM   11  C   UNL     1       2.875   2.933   2.307  1.00  0.00    -0.027 A 
HETATM   12  C   UNL     1       2.614   4.294   2.088  1.00  0.00     0.010 A 
HETATM   13  C   UNL     1       3.301   5.276   2.809  1.00  0.00     0.003 A 
HETATM   14  C   UNL     1       4.251   4.911   3.762  1.00  0.00     0.036 A 
HETATM   15  C   UNL     1       4.508   3.565   3.985  1.00  0.00     0.066 A 
HETATM   16  C   UNL     1       3.837   2.580   3.267  1.00  0.00     0.046 A 
BRANCH  15  17
HETATM   17  O   UNL     1       5.419   3.156   4.913  1.00  0.00    -0.361 OA
HETATM   18  H   UNL     1       5.811   3.941   5.331  1.00  0.00     0.217 HD
ENDBRANCH  15  17
ENDBRANCH   1  11
TORSDOF 6
