REMARK  6 active torsions:
REMARK  status: ('A' for Active; 'I' for Inactive)
REMARK    1  A    between atoms: N_2  and  C_4 
REMARK    2  A    between atoms: C_7  and  C_8 
REMARK    3  A    between atoms: C_8  and  O_9 
REMARK    4  A    between atoms: C_8  and  C_10 
REMARK    5  A    between atoms: C_10  and  C_11 
REMARK       I    between atoms: C_11  and  N_13 
REMARK    6  A    between atoms: N_13  and  O_14 
ROOT
HETATM    1  C   UNL     1       5.322   1.651  -4.803  1.00  0.00     0.160 C 
ENDROOT
BRANCH   1   2
HETATM    2  C   UNL     1       4.630   1.214  -3.526  1.00  0.00    -0.029 A 
HETATM    3  C   UNL     1       3.498   1.894  -3.068  1.00  0.00     0.012 A 
HETATM    4  C   UNL     1       2.815   1.463  -1.918  1.00  0.00     0.030 A 
HETATM    5  C   UNL     1       3.236   0.354  -1.167  1.00  0.00     0.029 A 
HETATM    6  C   UNL     1       4.388  -0.298  -1.636  1.00  0.00     0.030 A 
HETATM    7  C   UNL     1       5.074   0.116  -2.785  1.00  0.00     0.012 A 
BRANCH   5   8
HETATM    8  N   UNL     1       2.546  -0.099  -0.045  1.00  0.00    -0.390 N 
HETATM    9  C   UNL     1       1.312   0.548   0.384  1.00  0.00     0.149 C 
HETATM   10  C   UNL     1       3.221  -0.955   0.924  1.00  0.00     0.149 C 
ENDBRANCH   5   8
ENDBRANCH   1   2
BRANCH   1  11
HETATM   11  O   UNL     1       6.665   2.063  -4.517  1.00  0.00    -0.390 OA
HETATM   12  H   UNL     1       6.880   1.803  -3.605  1.00  0.00     0.210 HD
ENDBRANCH   1  11
BRANCH   1  13
HETATM   13  C   UNL     1       5.413   0.543  -5.850  1.00  0.00     0.141 C 
BRANCH  13  14
HETATM   14  C   UNL     1       4.062   0.090  -6.338  1.00  0.00     0.243 C 
HETATM   15  O   UNL     1       3.076   0.817  -6.435  1.00  0.00    -0.271 OA
HETATM   16  N   UNL     1       4.042  -1.227  -6.753  1.00  0.00    -0.237 N 
HETATM   17  H   UNL     1       4.702  -1.914  -6.401  1.00  0.00     0.197 HD
BRANCH  16  18
HETATM   18  O   UNL     1       2.778  -1.724  -7.139  1.00  0.00    -0.287 OA
HETATM   19  H   UNL     1       2.196  -0.937  -7.030  1.00  0.00     0.244 HD
ENDBRANCH  16  18
ENDBRANCH  13  14
ENDBRANCH   1  13
TORSDOF 6
