REMARK  6 active torsions:
REMARK  status: ('A' for Active; 'I' for Inactive)
REMARK    1  A    between atoms: C_2  and  C_3 
REMARK       I    between atoms: C_2  and  N_14 
REMARK    2  A    between atoms: C_3  and  C_4 
REMARK    3  A    between atoms: C_4  and  O_5 
REMARK    4  A    between atoms: C_4  and  C_6 
REMARK    5  A    between atoms: C_12  and  O_13 
REMARK    6  A    between atoms: N_14  and  O_15 
ROOT
HETATM    1  C   UNL     1       2.111   0.866   2.308  1.00  0.00     0.162 C 
ENDROOT
BRANCH   1   2
HETATM    2  C   UNL     1       3.003   0.442   1.137  1.00  0.00     0.141 C 
BRANCH   2   3
HETATM    3  C   UNL     1       2.198   0.002  -0.067  1.00  0.00     0.243 C 
HETATM    4  O   UNL     1       2.498   0.324  -1.218  1.00  0.00    -0.271 OA
HETATM    5  N   UNL     1       1.161  -0.857   0.197  1.00  0.00    -0.237 N 
HETATM    6  H   UNL     1       0.738  -0.896   1.128  1.00  0.00     0.197 HD
BRANCH   5   7
HETATM    7  O   UNL     1       0.337  -1.200  -0.899  1.00  0.00    -0.287 OA
HETATM    8  H   UNL     1       0.776  -0.734  -1.642  1.00  0.00     0.244 HD
ENDBRANCH   5   7
ENDBRANCH   2   3
ENDBRANCH   1   2
BRANCH   1   9
HETATM    9  O   UNL     1       1.349  -0.263   2.760  1.00  0.00    -0.390 OA
HETATM   10  H   UNL     1       1.954  -0.785   3.326  1.00  0.00     0.210 HD
ENDBRANCH   1   9
BRANCH   1  11
HETATM   11  C   UNL     1       2.890   1.425   3.482  1.00  0.00     0.005 A 
HETATM   12  C   UNL     1       2.683   2.755   3.886  1.00  0.00     0.036 A 
HETATM   13  C   UNL     1       3.382   3.281   4.974  1.00  0.00     0.034 A 
HETATM   14 CL   UNL     1       3.100   4.905   5.467  1.00  0.00    -0.084 Cl
HETATM   15  C   UNL     1       4.300   2.500   5.671  1.00  0.00     0.026 A 
HETATM   16  C   UNL     1       4.513   1.175   5.292  1.00  0.00     0.039 A 
HETATM   17  C   UNL     1       3.804   0.649   4.212  1.00  0.00     0.074 A 
BRANCH  17  18
HETATM   18  O   UNL     1       3.958  -0.667   3.873  1.00  0.00    -0.360 OA
HETATM   19  H   UNL     1       4.683  -1.045   4.403  1.00  0.00     0.217 HD
ENDBRANCH  17  18
ENDBRANCH   1  11
TORSDOF 6
