REMARK  5 active torsions:
REMARK  status: ('A' for Active; 'I' for Inactive)
REMARK    1  A    between atoms: C_2  and  C_3 
REMARK       I    between atoms: C_2  and  N_13 
REMARK    2  A    between atoms: C_3  and  C_4 
REMARK    3  A    between atoms: C_4  and  O_5 
REMARK    4  A    between atoms: C_4  and  C_6 
REMARK    5  A    between atoms: N_13  and  O_14 
ROOT
HETATM    1  C   UNL     1       1.922   1.917  -1.641  1.00  0.00     0.160 C 
ENDROOT
BRANCH   1   2
HETATM    2  C   UNL     1       2.853   1.006  -0.840  1.00  0.00     0.141 C 
BRANCH   2   3
HETATM    3  C   UNL     1       2.095  -0.033  -0.038  1.00  0.00     0.243 C 
HETATM    4  O   UNL     1       2.478  -1.198   0.068  1.00  0.00    -0.271 OA
HETATM    5  N   UNL     1       0.998   0.433   0.648  1.00  0.00    -0.237 N 
HETATM    6  H   UNL     1       0.506   1.276   0.344  1.00  0.00     0.197 HD
BRANCH   5   7
HETATM    7  O   UNL     1       0.238  -0.531   1.344  1.00  0.00    -0.287 OA
HETATM    8  H   UNL     1       0.763  -1.352   1.213  1.00  0.00     0.244 HD
ENDBRANCH   5   7
ENDBRANCH   2   3
ENDBRANCH   1   2
BRANCH   1   9
HETATM    9  O   UNL     1       1.097   2.665  -0.736  1.00  0.00    -0.390 OA
HETATM   10  H   UNL     1       1.625   3.400  -0.376  1.00  0.00     0.210 HD
ENDBRANCH   1   9
BRANCH   1  11
HETATM   11  C   UNL     1       2.651   2.886  -2.550  1.00  0.00    -0.028 A 
HETATM   12  C   UNL     1       2.412   2.858  -3.934  1.00  0.00     0.010 A 
HETATM   13  C   UNL     1       3.033   3.774  -4.790  1.00  0.00     0.002 A 
HETATM   14  C   UNL     1       3.896   4.740  -4.271  1.00  0.00     0.024 A 
HETATM   15  C   UNL     1       4.145   4.774  -2.900  1.00  0.00     0.034 A 
HETATM   16 CL   UNL     1       5.193   5.976  -2.256  1.00  0.00    -0.084 Cl
HETATM   17  C   UNL     1       3.538   3.854  -2.044  1.00  0.00     0.033 A 
ENDBRANCH   1  11
TORSDOF 5
