REMARK  5 active torsions:
REMARK  status: ('A' for Active; 'I' for Inactive)
REMARK    1  A    between atoms: N_2  and  O_3 
REMARK       I    between atoms: N_2  and  C_4 
REMARK    2  A    between atoms: C_4  and  C_6 
REMARK    3  A    between atoms: C_6  and  C_7 
REMARK    4  A    between atoms: C_7  and  O_8 
REMARK    5  A    between atoms: C_7  and  C_9 
ROOT
HETATM    1  C   UNL     1       5.124   2.229  -1.403  1.00  0.00     0.161 C 
ENDROOT
BRANCH   1   2
HETATM    2  C   UNL     1       4.572   1.101  -0.534  1.00  0.00     0.141 C 
BRANCH   2   3
HETATM    3  C   UNL     1       3.068   0.957  -0.682  1.00  0.00     0.245 C 
HETATM    4  N   UNL     1       2.297   1.553   0.300  1.00  0.00    -0.233 N 
HETATM    5  C   UNL     1       0.858   1.683   0.148  1.00  0.00     0.188 C 
HETATM    6  O   UNL     1       2.590   0.293  -1.598  1.00  0.00    -0.271 OA
BRANCH   4   7
HETATM    7  O   UNL     1       2.860   2.628   1.017  1.00  0.00    -0.285 OA
HETATM    8  H   UNL     1       2.597   2.414   1.933  1.00  0.00     0.245 HD
ENDBRANCH   4   7
ENDBRANCH   2   3
ENDBRANCH   1   2
BRANCH   1   9
HETATM    9  O   UNL     1       4.616   3.510  -1.061  1.00  0.00    -0.390 OA
HETATM   10  H   UNL     1       4.556   3.557  -0.087  1.00  0.00     0.210 HD
ENDBRANCH   1   9
BRANCH   1  11
HETATM   11  C   UNL     1       6.648   2.252  -1.371  1.00  0.00    -0.007 A 
HETATM   12  C   UNL     1       7.336   1.567  -2.394  1.00  0.00     0.013 A 
HETATM   13  C   UNL     1       8.732   1.537  -2.433  1.00  0.00     0.024 A 
HETATM   14  C   UNL     1       9.465   2.196  -1.454  1.00  0.00     0.035 A 
HETATM   15 CL   UNL     1      11.185   2.172  -1.509  1.00  0.00    -0.084 Cl
HETATM   16  C   UNL     1       8.815   2.864  -0.421  1.00  0.00     0.048 A 
HETATM   17  C   UNL     1       7.416   2.877  -0.368  1.00  0.00     0.044 A 
HETATM   18 CL   UNL     1       6.705   3.655   1.004  1.00  0.00    -0.084 Cl
ENDBRANCH   1  11
TORSDOF 5
