REMARK  5 active torsions:
REMARK  status: ('A' for Active; 'I' for Inactive)
REMARK    1  A    between atoms: O_2  and  C_3 
REMARK    2  A    between atoms: C_6  and  C_7 
REMARK    3  A    between atoms: C_7  and  C_8 
REMARK    4  A    between atoms: C_8  and  C_9 
REMARK    5  A    between atoms: C_17  and  O_18 
ROOT
HETATM    1  C   UNL     1       3.079   0.978   0.522  1.00  0.00     0.101 A 
HETATM    2  C   UNL     1       2.664   1.574   1.718  1.00  0.00     0.040 A 
HETATM    3  C   UNL     1       3.385   2.626   2.288  1.00  0.00     0.010 A 
HETATM    4  C   UNL     1       4.564   3.093   1.698  1.00  0.00    -0.055 A 
HETATM    5  C   UNL     1       4.973   2.499   0.495  1.00  0.00     0.046 A 
HETATM    6  C   UNL     1       4.241   1.460  -0.102  1.00  0.00     0.102 A 
ENDROOT
BRANCH   4   7
HETATM    7  C   UNL     1       5.359   4.240   2.283  1.00  0.00     0.043 C 
BRANCH   7   8
HETATM    8  C   UNL     1       5.330   4.325   3.816  1.00  0.00     0.043 C 
BRANCH   8   9
HETATM    9  C   UNL     1       6.154   5.471   4.346  1.00  0.00    -0.056 A 
HETATM   10  C   UNL     1       7.489   5.277   4.719  1.00  0.00     0.007 A 
HETATM   11  C   UNL     1       8.247   6.340   5.213  1.00  0.00     0.002 A 
HETATM   12  C   UNL     1       7.676   7.607   5.335  1.00  0.00     0.024 A 
HETATM   13  C   UNL     1       6.349   7.806   4.962  1.00  0.00     0.034 A 
HETATM   14 CL   UNL     1       5.642   9.368   5.115  1.00  0.00    -0.084 Cl
HETATM   15  C   UNL     1       5.587   6.748   4.468  1.00  0.00     0.031 A 
ENDBRANCH   8   9
ENDBRANCH   7   8
ENDBRANCH   4   7
BRANCH   6  16
HETATM   16  O   UNL     1       4.805   0.997  -1.265  1.00  0.00    -0.353 OA
HETATM   17  C   UNL     1       3.909   0.495  -2.249  1.00  0.00     0.210 C 
ENDBRANCH   6  16
BRANCH   1  18
HETATM   18  O   UNL     1       2.432  -0.097  -0.028  1.00  0.00    -0.353 OA
HETATM   19  C   UNL     1       1.064  -0.269   0.324  1.00  0.00     0.210 C 
ENDBRANCH   1  18
TORSDOF 5
