REMARK  8 active torsions:
REMARK  status: ('A' for Active; 'I' for Inactive)
REMARK    1  A    between atoms: N_2  and  O_3 
REMARK       I    between atoms: N_2  and  C_4 
REMARK    2  A    between atoms: C_4  and  C_6 
REMARK    3  A    between atoms: C_6  and  C_7 
REMARK    4  A    between atoms: C_7  and  O_8 
REMARK    5  A    between atoms: C_7  and  C_9 
REMARK    6  A    between atoms: C_12  and  O_13 
REMARK    7  A    between atoms: O_13  and  C_14 
REMARK    8  A    between atoms: C_14  and  C_15 
ROOT
HETATM    1  C   UNL     1       6.793  -1.557   2.076  1.00  0.00    -0.029 A 
HETATM    2  C   UNL     1       7.489  -2.479   2.873  1.00  0.00     0.012 A 
HETATM    3  C   UNL     1       8.884  -2.559   2.823  1.00  0.00     0.037 A 
HETATM    4  C   UNL     1       9.600  -1.730   1.965  1.00  0.00     0.069 A 
HETATM    5  C   UNL     1       8.924  -0.767   1.216  1.00  0.00     0.037 A 
HETATM    6  C   UNL     1       7.532  -0.696   1.255  1.00  0.00     0.012 A 
ENDROOT
BRANCH   1   7
HETATM    7  C   UNL     1       5.277  -1.555   2.079  1.00  0.00     0.160 C 
BRANCH   7   8
HETATM    8  C   UNL     1       4.601  -0.201   1.852  1.00  0.00     0.141 C 
BRANCH   8   9
HETATM    9  C   UNL     1       5.010   0.861   2.846  1.00  0.00     0.245 C 
HETATM   10  N   UNL     1       4.652   0.663   4.158  1.00  0.00    -0.233 N 
HETATM   11  C   UNL     1       4.996   1.574   5.228  1.00  0.00     0.188 C 
HETATM   12  O   UNL     1       5.613   1.871   2.475  1.00  0.00    -0.271 OA
BRANCH  10  13
HETATM   13  O   UNL     1       3.927  -0.473   4.545  1.00  0.00    -0.285 OA
HETATM   14  H   UNL     1       3.237  -0.116   5.133  1.00  0.00     0.245 HD
ENDBRANCH  10  13
ENDBRANCH   8   9
ENDBRANCH   7   8
BRANCH   7  15
HETATM   15  O   UNL     1       4.824  -2.436   1.041  1.00  0.00    -0.390 OA
HETATM   16  H   UNL     1       5.479  -2.404   0.323  1.00  0.00     0.210 HD
ENDBRANCH   7  15
ENDBRANCH   1   7
BRANCH   4  17
HETATM   17  O   UNL     1      10.953  -1.946   1.905  1.00  0.00    -0.347 OA
BRANCH  17  18
HETATM   18  C   UNL     1      11.558  -1.502   0.687  1.00  0.00     0.214 C 
BRANCH  18  19
HETATM   19  C   UNL     1      12.861  -2.218   0.448  1.00  0.00    -0.034 A 
HETATM   20  C   UNL     1      12.907  -3.618   0.433  1.00  0.00     0.009 A 
HETATM   21  C   UNL     1      14.092  -4.282   0.117  1.00  0.00     0.001 A 
HETATM   22  C   UNL     1      15.238  -3.549  -0.188  1.00  0.00     0.000 A 
HETATM   23  C   UNL     1      15.203  -2.156  -0.176  1.00  0.00     0.001 A 
HETATM   24  C   UNL     1      14.018  -1.491   0.137  1.00  0.00     0.009 A 
ENDBRANCH  18  19
ENDBRANCH  17  18
ENDBRANCH   4  17
TORSDOF 8
