REMARK  5 active torsions:
REMARK  status: ('A' for Active; 'I' for Inactive)
REMARK    1  A    between atoms: N_2  and  O_3 
REMARK       I    between atoms: N_2  and  C_4 
REMARK    2  A    between atoms: C_4  and  C_6 
REMARK    3  A    between atoms: C_6  and  C_7 
REMARK    4  A    between atoms: C_7  and  O_8 
REMARK    5  A    between atoms: C_7  and  C_9 
ROOT
HETATM    1  C   UNL     1       5.293  -0.958   2.574  1.00  0.00     0.160 C 
ENDROOT
BRANCH   1   2
HETATM    2  C   UNL     1       4.729  -0.530   1.217  1.00  0.00     0.141 C 
BRANCH   2   3
HETATM    3  C   UNL     1       3.215  -0.475   1.212  1.00  0.00     0.245 C 
HETATM    4  N   UNL     1       2.562  -1.617   0.781  1.00  0.00    -0.233 N 
HETATM    5  C   UNL     1       1.127  -1.768   0.930  1.00  0.00     0.188 C 
HETATM    6  O   UNL     1       2.619   0.556   1.524  1.00  0.00    -0.271 OA
BRANCH   4   7
HETATM    7  O   UNL     1       3.243  -2.847   0.901  1.00  0.00    -0.285 OA
HETATM    8  H   UNL     1       3.135  -3.218   0.003  1.00  0.00     0.245 HD
ENDBRANCH   4   7
ENDBRANCH   2   3
ENDBRANCH   1   2
BRANCH   1   9
HETATM    9  O   UNL     1       4.984  -2.310   2.913  1.00  0.00    -0.390 OA
HETATM   10  H   UNL     1       4.369  -2.666   2.244  1.00  0.00     0.210 HD
ENDBRANCH   1   9
BRANCH   1  11
HETATM   11  C   UNL     1       6.812  -0.879   2.590  1.00  0.00    -0.029 A 
HETATM   12  C   UNL     1       7.484  -0.046   3.496  1.00  0.00     0.013 A 
HETATM   13  C   UNL     1       8.882  -0.007   3.518  1.00  0.00     0.043 A 
HETATM   14  C   UNL     1       9.607  -0.800   2.638  1.00  0.00     0.116 A 
HETATM   15  F   UNL     1      10.947  -0.762   2.661  1.00  0.00    -0.206 F 
HETATM   16  C   UNL     1       8.967  -1.633   1.734  1.00  0.00     0.043 A 
HETATM   17  C   UNL     1       7.573  -1.680   1.714  1.00  0.00     0.013 A 
ENDBRANCH   1  11
TORSDOF 5
