REMARK  6 active torsions:
REMARK  status: ('A' for Active; 'I' for Inactive)
REMARK    1  A    between atoms: N_2  and  O_3 
REMARK       I    between atoms: N_2  and  C_4 
REMARK    2  A    between atoms: C_4  and  C_6 
REMARK    3  A    between atoms: C_6  and  C_7 
REMARK    4  A    between atoms: C_7  and  O_8 
REMARK    5  A    between atoms: C_7  and  C_9 
REMARK    6  A    between atoms: C_15  and  O_16 
ROOT
HETATM    1  C   UNL     1       5.241  -1.854  -1.993  1.00  0.00     0.162 C 
ENDROOT
BRANCH   1   2
HETATM    2  C   UNL     1       4.702  -0.878  -0.950  1.00  0.00     0.141 C 
BRANCH   2   3
HETATM    3  C   UNL     1       3.195  -1.001  -0.887  1.00  0.00     0.245 C 
HETATM    4  N   UNL     1       2.462  -0.162  -1.700  1.00  0.00    -0.233 N 
HETATM    5  C   UNL     1       1.013  -0.113  -1.651  1.00  0.00     0.188 C 
HETATM    6  O   UNL     1       2.669  -1.863  -0.179  1.00  0.00    -0.271 OA
BRANCH   4   7
HETATM    7  O   UNL     1       3.059   1.031  -2.154  1.00  0.00    -0.285 OA
HETATM    8  H   UNL     1       2.569   1.217  -2.976  1.00  0.00     0.245 HD
ENDBRANCH   4   7
ENDBRANCH   2   3
ENDBRANCH   1   2
BRANCH   1   9
HETATM    9  O   UNL     1       4.716  -1.549  -3.287  1.00  0.00    -0.390 OA
HETATM   10  H   UNL     1       5.214  -0.767  -3.596  1.00  0.00     0.210 HD
ENDBRANCH   1   9
BRANCH   1  11
HETATM   11  C   UNL     1       6.761  -1.844  -2.008  1.00  0.00     0.005 A 
HETATM   12  C   UNL     1       7.455  -2.762  -1.200  1.00  0.00     0.036 A 
HETATM   13  C   UNL     1       8.854  -2.776  -1.179  1.00  0.00     0.034 A 
HETATM   14 CL   UNL     1       9.675  -3.913  -0.184  1.00  0.00    -0.084 Cl
HETATM   15  C   UNL     1       9.587  -1.887  -1.956  1.00  0.00     0.026 A 
HETATM   16  C   UNL     1       8.917  -0.963  -2.752  1.00  0.00     0.039 A 
HETATM   17  C   UNL     1       7.518  -0.935  -2.764  1.00  0.00     0.074 A 
BRANCH  17  18
HETATM   18  O   UNL     1       6.866  -0.016  -3.537  1.00  0.00    -0.360 OA
HETATM   19  H   UNL     1       7.526   0.483  -4.056  1.00  0.00     0.217 HD
ENDBRANCH  17  18
ENDBRANCH   1  11
TORSDOF 6
