REMARK  5 active torsions:
REMARK  status: ('A' for Active; 'I' for Inactive)
REMARK    1  A    between atoms: C_2  and  C_3 
REMARK       I    between atoms: C_2  and  N_14 
REMARK    2  A    between atoms: C_3  and  C_4 
REMARK    3  A    between atoms: C_4  and  O_5 
REMARK    4  A    between atoms: C_4  and  C_6 
REMARK    5  A    between atoms: N_14  and  O_15 
ROOT
HETATM    1  C   UNL     1       2.066  -1.537   1.849  1.00  0.00     0.161 C 
ENDROOT
BRANCH   1   2
HETATM    2  C   UNL     1       3.027  -0.820   0.898  1.00  0.00     0.141 C 
BRANCH   2   3
HETATM    3  C   UNL     1       2.317   0.199   0.013  1.00  0.00     0.243 C 
HETATM    4  O   UNL     1       2.813   1.286  -0.269  1.00  0.00    -0.271 OA
HETATM    5  N   UNL     1       1.118  -0.214  -0.511  1.00  0.00    -0.237 N 
HETATM    6  H   UNL     1       0.600  -1.000  -0.113  1.00  0.00     0.197 HD
BRANCH   5   7
HETATM    7  O   UNL     1       0.376   0.725  -1.259  1.00  0.00    -0.287 OA
HETATM    8  H   UNL     1       0.933   1.531  -1.206  1.00  0.00     0.244 HD
ENDBRANCH   5   7
ENDBRANCH   2   3
ENDBRANCH   1   2
BRANCH   1   9
HETATM    9  O   UNL     1       1.104  -2.281   1.095  1.00  0.00    -0.390 OA
HETATM   10  H   UNL     1       1.520  -3.122   0.821  1.00  0.00     0.210 HD
ENDBRANCH   1   9
BRANCH   1  11
HETATM   11  C   UNL     1       2.764  -2.395   2.896  1.00  0.00    -0.007 A 
HETATM   12  C   UNL     1       3.067  -1.785   4.131  1.00  0.00     0.013 A 
HETATM   13  C   UNL     1       3.656  -2.505   5.174  1.00  0.00     0.024 A 
HETATM   14  C   UNL     1       3.950  -3.852   5.003  1.00  0.00     0.035 A 
HETATM   15 CL   UNL     1       4.645  -4.748   6.295  1.00  0.00    -0.084 Cl
HETATM   16  C   UNL     1       3.685  -4.478   3.790  1.00  0.00     0.048 A 
HETATM   17  C   UNL     1       3.114  -3.751   2.737  1.00  0.00     0.044 A 
HETATM   18 CL   UNL     1       2.877  -4.606   1.253  1.00  0.00    -0.084 Cl
ENDBRANCH   1  11
TORSDOF 5
