REMARK  5 active torsions:
REMARK  status: ('A' for Active; 'I' for Inactive)
REMARK    1  A    between atoms: N_2  and  O_3 
REMARK       I    between atoms: N_2  and  C_4 
REMARK    2  A    between atoms: C_4  and  C_6 
REMARK    3  A    between atoms: C_6  and  C_7 
REMARK    4  A    between atoms: C_7  and  O_8 
REMARK    5  A    between atoms: C_7  and  C_9 
ROOT
HETATM    1  C   UNL     1       5.205  -1.046   2.465  1.00  0.00     0.160 C 
ENDROOT
BRANCH   1   2
HETATM    2  C   UNL     1       4.528  -0.405   1.254  1.00  0.00     0.141 C 
BRANCH   2   3
HETATM    3  C   UNL     1       4.937   1.035   1.050  1.00  0.00     0.245 C 
HETATM    4  N   UNL     1       4.637   1.918   2.069  1.00  0.00    -0.233 N 
HETATM    5  C   UNL     1       4.850   3.347   1.909  1.00  0.00     0.188 C 
HETATM    6  O   UNL     1       5.540   1.380   0.031  1.00  0.00    -0.271 OA
BRANCH   4   7
HETATM    7  O   UNL     1       3.614   1.544   2.963  1.00  0.00    -0.285 OA
HETATM    8  H   UNL     1       3.161   2.371   3.200  1.00  0.00     0.245 HD
ENDBRANCH   4   7
ENDBRANCH   2   3
ENDBRANCH   1   2
BRANCH   1   9
HETATM    9  O   UNL     1       4.763  -2.407   2.538  1.00  0.00    -0.390 OA
HETATM   10  H   UNL     1       5.388  -2.944   2.022  1.00  0.00     0.210 HD
ENDBRANCH   1   9
BRANCH   1  11
HETATM   11  C   UNL     1       6.724  -1.028   2.479  1.00  0.00    -0.029 A 
HETATM   12  C   UNL     1       7.386  -0.938   3.717  1.00  0.00     0.011 A 
HETATM   13  C   UNL     1       8.781  -0.930   3.786  1.00  0.00     0.019 A 
HETATM   14  C   UNL     1       9.529  -1.018   2.618  1.00  0.00     0.011 A 
HETATM   15 BR   UNL     1      11.418  -1.004   2.706  1.00  0.00    -0.051 Br
HETATM   16  C   UNL     1       8.895  -1.116   1.381  1.00  0.00     0.019 A 
HETATM   17  C   UNL     1       7.498  -1.129   1.314  1.00  0.00     0.011 A 
ENDBRANCH   1  11
TORSDOF 5
