REMARK  5 active torsions:
REMARK  status: ('A' for Active; 'I' for Inactive)
REMARK    1  A    between atoms: N_2  and  O_3 
REMARK       I    between atoms: N_2  and  C_4 
REMARK    2  A    between atoms: C_4  and  C_6 
REMARK    3  A    between atoms: C_6  and  C_7 
REMARK    4  A    between atoms: C_7  and  O_8 
REMARK    5  A    between atoms: C_7  and  C_9 
ROOT
HETATM    1  C   UNL     1       5.310  -1.298   2.322  1.00  0.00     0.160 C 
ENDROOT
BRANCH   1   2
HETATM    2  C   UNL     1       4.707  -0.620   1.091  1.00  0.00     0.141 C 
BRANCH   2   3
HETATM    3  C   UNL     1       3.196  -0.646   1.088  1.00  0.00     0.245 C 
HETATM    4  N   UNL     1       2.598  -1.717   0.447  1.00  0.00    -0.233 N 
HETATM    5  C   UNL     1       1.159  -1.901   0.425  1.00  0.00     0.188 C 
HETATM    6  O   UNL     1       2.543   0.284   1.578  1.00  0.00    -0.271 OA
BRANCH   4   7
HETATM    7  O   UNL     1       3.351  -2.890   0.257  1.00  0.00    -0.285 OA
HETATM    8  H   UNL     1       2.949  -3.277  -0.544  1.00  0.00     0.245 HD
ENDBRANCH   4   7
ENDBRANCH   2   3
ENDBRANCH   1   2
BRANCH   1   9
HETATM    9  O   UNL     1       4.997  -2.683   2.429  1.00  0.00    -0.390 OA
HETATM   10  H   UNL     1       4.722  -3.000   1.548  1.00  0.00     0.210 HD
ENDBRANCH   1   9
BRANCH   1  11
HETATM   11  C   UNL     1       6.828  -1.231   2.305  1.00  0.00    -0.028 A 
HETATM   12  C   UNL     1       7.562  -1.814   1.257  1.00  0.00     0.011 A 
HETATM   13  C   UNL     1       8.958  -1.779   1.252  1.00  0.00     0.026 A 
HETATM   14  C   UNL     1       9.646  -1.167   2.300  1.00  0.00     0.055 A 
HETATM   15 CL   UNL     1      11.373  -1.166   2.233  1.00  0.00    -0.083 Cl
HETATM   16  C   UNL     1       8.931  -0.588   3.354  1.00  0.00     0.056 A 
HETATM   17 CL   UNL     1       9.717   0.185   4.686  1.00  0.00    -0.083 Cl
HETATM   18  C   UNL     1       7.530  -0.622   3.355  1.00  0.00     0.035 A 
ENDBRANCH   1  11
TORSDOF 5
