REMARK  5 active torsions:
REMARK  status: ('A' for Active; 'I' for Inactive)
REMARK    1  A    between atoms: N_2  and  O_3 
REMARK       I    between atoms: N_2  and  C_4 
REMARK    2  A    between atoms: C_4  and  C_6 
REMARK    3  A    between atoms: C_6  and  C_7 
REMARK    4  A    between atoms: C_7  and  O_8 
REMARK    5  A    between atoms: C_7  and  C_9 
ROOT
HETATM    1  C   UNL     1       5.274   0.263  -2.688  1.00  0.00     0.160 C 
ENDROOT
BRANCH   1   2
HETATM    2  C   UNL     1       4.706   0.134  -1.272  1.00  0.00     0.141 C 
BRANCH   2   3
HETATM    3  C   UNL     1       3.190   0.086  -1.250  1.00  0.00     0.245 C 
HETATM    4  N   UNL     1       2.540   1.301  -1.088  1.00  0.00    -0.233 N 
HETATM    5  C   UNL     1       1.104   1.413  -1.231  1.00  0.00     0.188 C 
HETATM    6  O   UNL     1       2.588  -0.984  -1.313  1.00  0.00    -0.271 OA
BRANCH   4   7
HETATM    7  O   UNL     1       3.217   2.468  -1.497  1.00  0.00    -0.285 OA
HETATM    8  H   UNL     1       3.055   3.065  -0.740  1.00  0.00     0.245 HD
ENDBRANCH   4   7
ENDBRANCH   2   3
ENDBRANCH   1   2
BRANCH   1   9
HETATM    9  O   UNL     1       4.969   1.511  -3.310  1.00  0.00    -0.390 OA
HETATM   10  H   UNL     1       4.369   2.010  -2.724  1.00  0.00     0.210 HD
ENDBRANCH   1   9
BRANCH   1  11
HETATM   11  C   UNL     1       6.789   0.184  -2.682  1.00  0.00    -0.026 A 
HETATM   12  C   UNL     1       7.554   1.143  -1.989  1.00  0.00     0.010 A 
HETATM   13  C   UNL     1       8.951   1.099  -1.999  1.00  0.00     0.004 A 
HETATM   14  C   UNL     1       9.604   0.099  -2.711  1.00  0.00     0.042 A 
HETATM   15  C   UNL     1       8.857  -0.847  -3.404  1.00  0.00     0.117 A 
HETATM   16  F   UNL     1       9.490  -1.801  -4.099  1.00  0.00    -0.206 F 
HETATM   17  C   UNL     1       7.463  -0.816  -3.396  1.00  0.00     0.052 A 
ENDBRANCH   1  11
TORSDOF 5
