REMARK  5 active torsions:
REMARK  status: ('A' for Active; 'I' for Inactive)
REMARK    1  A    between atoms: N_2  and  O_3 
REMARK       I    between atoms: N_2  and  C_4 
REMARK    2  A    between atoms: C_4  and  C_6 
REMARK    3  A    between atoms: C_6  and  C_7 
REMARK    4  A    between atoms: C_7  and  O_8 
REMARK    5  A    between atoms: C_7  and  C_9 
ROOT
HETATM    1  C   UNL     1       5.297   0.301  -2.623  1.00  0.00     0.160 C 
ENDROOT
BRANCH   1   2
HETATM    2  C   UNL     1       4.721   0.167  -1.210  1.00  0.00     0.141 C 
BRANCH   2   3
HETATM    3  C   UNL     1       3.208   0.107  -1.199  1.00  0.00     0.245 C 
HETATM    4  N   UNL     1       2.543   1.312  -1.023  1.00  0.00    -0.233 N 
HETATM    5  C   UNL     1       1.109   1.418  -1.197  1.00  0.00     0.188 C 
HETATM    6  O   UNL     1       2.621  -0.972  -1.295  1.00  0.00    -0.271 OA
BRANCH   4   7
HETATM    7  O   UNL     1       3.218   2.490  -1.411  1.00  0.00    -0.285 OA
HETATM    8  H   UNL     1       3.085   3.057  -0.625  1.00  0.00     0.245 HD
ENDBRANCH   4   7
ENDBRANCH   2   3
ENDBRANCH   1   2
BRANCH   1   9
HETATM    9  O   UNL     1       4.997   1.554  -3.236  1.00  0.00    -0.390 OA
HETATM   10  H   UNL     1       4.383   2.044  -2.657  1.00  0.00     0.210 HD
ENDBRANCH   1   9
BRANCH   1  11
HETATM   11  C   UNL     1       6.813   0.217  -2.612  1.00  0.00    -0.028 A 
HETATM   12  C   UNL     1       7.491  -0.783  -3.326  1.00  0.00     0.010 A 
HETATM   13  C   UNL     1       8.890  -0.826  -3.335  1.00  0.00     0.002 A 
HETATM   14  C   UNL     1       9.628   0.125  -2.630  1.00  0.00     0.024 A 
HETATM   15  C   UNL     1       8.968   1.121  -1.921  1.00  0.00     0.034 A 
HETATM   16 CL   UNL     1       9.866   2.304  -1.055  1.00  0.00    -0.084 Cl
HETATM   17  C   UNL     1       7.573   1.173  -1.912  1.00  0.00     0.033 A 
ENDBRANCH   1  11
TORSDOF 5
