REMARK  7 active torsions:
REMARK  status: ('A' for Active; 'I' for Inactive)
REMARK    1  A    between atoms: O_1  and  C_2 
REMARK    2  A    between atoms: C_5  and  C_6 
REMARK    3  A    between atoms: C_6  and  C_7 
REMARK    4  A    between atoms: C_7  and  C_8 
REMARK    5  A    between atoms: C_11  and  O_12 
REMARK    6  A    between atoms: C_13  and  O_14 
REMARK    7  A    between atoms: C_15  and  O_16 
ROOT
HETATM    1  C   UNL     1      -5.489  -1.269  -0.118  1.00  0.00    -0.022 A 
HETATM    2  C   UNL     1      -6.270  -1.240   1.054  1.00  0.00     0.013 A 
HETATM    3  C   UNL     1      -7.670  -1.193   0.992  1.00  0.00     0.040 A 
HETATM    4  C   UNL     1      -8.298  -1.171  -0.248  1.00  0.00     0.101 A 
HETATM    5  C   UNL     1      -7.538  -1.189  -1.411  1.00  0.00     0.133 A 
HETATM    6  C   UNL     1      -6.148  -1.231  -1.349  1.00  0.00     0.107 A 
ENDROOT
BRANCH   1   7
HETATM    7  C   UNL     1      -3.981  -1.333  -0.031  1.00  0.00     0.046 C 
BRANCH   7   8
HETATM    8  C   UNL     1      -3.336   0.056  -0.047  1.00  0.00     0.043 C 
BRANCH   8   9
HETATM    9  C   UNL     1      -1.827  -0.007   0.034  1.00  0.00    -0.058 A 
HETATM   10  C   UNL     1      -1.051  -0.044  -1.134  1.00  0.00     0.010 A 
HETATM   11  C   UNL     1       0.344  -0.086  -1.062  1.00  0.00     0.037 A 
HETATM   12  C   UNL     1       0.966  -0.099   0.182  1.00  0.00     0.065 A 
HETATM   13  C   UNL     1       0.214  -0.078   1.351  1.00  0.00     0.037 A 
HETATM   14  C   UNL     1      -1.180  -0.034   1.278  1.00  0.00     0.010 A 
BRANCH  12  15
HETATM   15  O   UNL     1       2.325  -0.130   0.301  1.00  0.00    -0.361 OA
HETATM   16  H   UNL     1       2.711  -0.122  -0.590  1.00  0.00     0.217 HD
ENDBRANCH  12  15
ENDBRANCH   8   9
ENDBRANCH   7   8
ENDBRANCH   1   7
BRANCH   6  17
HETATM   17  O   UNL     1      -5.437  -1.240  -2.517  1.00  0.00    -0.357 OA
HETATM   18  H   UNL     1      -6.121  -1.231  -3.218  1.00  0.00     0.217 HD
ENDBRANCH   6  17
BRANCH   5  19
HETATM   19  O   UNL     1      -8.149  -1.171  -2.638  1.00  0.00    -0.356 OA
HETATM   20  H   UNL     1      -9.105  -1.158  -2.426  1.00  0.00     0.218 HD
ENDBRANCH   5  19
BRANCH   4  21
HETATM   21  O   UNL     1      -9.658  -1.132  -0.376  1.00  0.00    -0.358 OA
HETATM   22  H   UNL     1     -10.047  -1.114   0.516  1.00  0.00     0.217 HD
ENDBRANCH   4  21
TORSDOF 7
