REMARK  5 active torsions:
REMARK  status: ('A' for Active; 'I' for Inactive)
REMARK    1  A    between atoms: N_2  and  O_3 
REMARK       I    between atoms: N_2  and  C_4 
REMARK    2  A    between atoms: C_4  and  C_6 
REMARK    3  A    between atoms: C_6  and  C_7 
REMARK    4  A    between atoms: C_7  and  O_8 
REMARK    5  A    between atoms: C_7  and  C_9 
ROOT
HETATM    1  C   UNL     1       5.152  -0.529   2.730  1.00  0.00     0.161 C 
ENDROOT
BRANCH   1   2
HETATM    2  C   UNL     1       4.594  -0.258   1.333  1.00  0.00     0.141 C 
BRANCH   2   3
HETATM    3  C   UNL     1       3.085  -0.284   1.333  1.00  0.00     0.245 C 
HETATM    4  N   UNL     1       2.474  -1.490   1.058  1.00  0.00    -0.233 N 
HETATM    5  C   UNL     1       1.033  -1.676   1.074  1.00  0.00     0.188 C 
HETATM    6  O   UNL     1       2.428   0.740   1.554  1.00  0.00    -0.271 OA
BRANCH   4   7
HETATM    7  O   UNL     1       3.265  -2.650   0.914  1.00  0.00    -0.285 OA
HETATM    8  H   UNL     1       2.659  -3.305   0.517  1.00  0.00     0.245 HD
ENDBRANCH   4   7
ENDBRANCH   2   3
ENDBRANCH   1   2
BRANCH   1   9
HETATM    9  O   UNL     1       4.768  -1.813   3.231  1.00  0.00    -0.390 OA
HETATM   10  H   UNL     1       4.682  -2.416   2.469  1.00  0.00     0.210 HD
ENDBRANCH   1   9
BRANCH   1  11
HETATM   11  C   UNL     1       6.672  -0.459   2.741  1.00  0.00    -0.006 A 
HETATM   12  C   UNL     1       7.420  -1.625   2.479  1.00  0.00     0.011 A 
HETATM   13  C   UNL     1       8.813  -1.626   2.499  1.00  0.00     0.002 A 
HETATM   14  C   UNL     1       9.494  -0.444   2.754  1.00  0.00     0.026 A 
HETATM   15  C   UNL     1       8.789   0.737   2.982  1.00  0.00     0.056 A 
HETATM   16 CL   UNL     1       9.724   2.166   3.269  1.00  0.00    -0.083 Cl
HETATM   17  C   UNL     1       7.379   0.740   2.977  1.00  0.00     0.064 A 
HETATM   18 CL   UNL     1       6.516   2.222   3.252  1.00  0.00    -0.082 Cl
ENDBRANCH   1  11
TORSDOF 5
