REMARK  9 active torsions:
REMARK  status: ('A' for Active; 'I' for Inactive)
REMARK    1  A    between atoms: O_2  and  C_3 
REMARK    2  A    between atoms: C_5  and  C_6 
REMARK    3  A    between atoms: C_6  and  O_7 
REMARK    4  A    between atoms: C_6  and  C_8 
REMARK    5  A    between atoms: C_8  and  C_9 
REMARK       I    between atoms: C_9  and  N_11 
REMARK    6  A    between atoms: N_11  and  O_13 
REMARK    7  A    between atoms: C_16  and  O_17 
REMARK    8  A    between atoms: O_17  and  C_18 
REMARK    9  A    between atoms: C_18  and  C_19 
ROOT
HETATM    1  C   UNL     1       3.074   1.004  -0.756  1.00  0.00     0.102 A 
HETATM    2  C   UNL     1       2.651   2.341  -0.680  1.00  0.00     0.049 A 
HETATM    3  C   UNL     1       3.277   3.349  -1.427  1.00  0.00    -0.026 A 
HETATM    4  C   UNL     1       4.360   3.003  -2.236  1.00  0.00     0.012 A 
HETATM    5  C   UNL     1       4.778   1.677  -2.334  1.00  0.00     0.040 A 
HETATM    6  C   UNL     1       4.105   0.658  -1.647  1.00  0.00     0.102 A 
ENDROOT
BRANCH   3   7
HETATM    7  C   UNL     1       2.841   4.797  -1.350  1.00  0.00     0.160 C 
BRANCH   7   8
HETATM    8  O   UNL     1       1.496   4.927  -1.829  1.00  0.00    -0.390 OA
HETATM    9  H   UNL     1       1.036   4.082  -1.694  1.00  0.00     0.210 HD
ENDBRANCH   7   8
BRANCH   7  10
HETATM   10  C   UNL     1       2.871   5.386   0.056  1.00  0.00     0.141 C 
BRANCH  10  11
HETATM   11  C   UNL     1       4.237   5.380   0.700  1.00  0.00     0.245 C 
HETATM   12  O   UNL     1       5.271   5.032   0.120  1.00  0.00    -0.271 OA
HETATM   13  N   UNL     1       4.273   5.807   2.003  1.00  0.00    -0.233 N 
HETATM   14  C   UNL     1       3.242   6.376   2.849  1.00  0.00     0.188 C 
BRANCH  13  15
HETATM   15  O   UNL     1       5.530   5.739   2.651  1.00  0.00    -0.285 OA
HETATM   16  H   UNL     1       6.076   5.287   1.974  1.00  0.00     0.245 HD
ENDBRANCH  13  15
ENDBRANCH  10  11
ENDBRANCH   7  10
ENDBRANCH   3   7
BRANCH   1  17
HETATM   17  O   UNL     1       2.467   0.005  -0.032  1.00  0.00    -0.353 OA
HETATM   18  C   UNL     1       2.023   0.387   1.269  1.00  0.00     0.210 C 
ENDBRANCH   1  17
BRANCH   6  19
HETATM   19  O   UNL     1       4.413  -0.677  -1.807  1.00  0.00    -0.344 OA
BRANCH  19  20
HETATM   20  C   UNL     1       5.108  -0.978  -3.026  1.00  0.00     0.214 C 
BRANCH  20  21
HETATM   21  C   UNL     1       5.015  -2.425  -3.444  1.00  0.00    -0.034 A 
HETATM   22  C   UNL     1       3.935  -3.235  -3.074  1.00  0.00     0.009 A 
HETATM   23  C   UNL     1       3.821  -4.532  -3.579  1.00  0.00     0.001 A 
HETATM   24  C   UNL     1       4.779  -5.030  -4.463  1.00  0.00     0.000 A 
HETATM   25  C   UNL     1       5.854  -4.233  -4.845  1.00  0.00     0.001 A 
HETATM   26  C   UNL     1       5.972  -2.936  -4.340  1.00  0.00     0.009 A 
ENDBRANCH  20  21
ENDBRANCH  19  20
ENDBRANCH   6  19
TORSDOF 9
