REMARK  6 active torsions:
REMARK  status: ('A' for Active; 'I' for Inactive)
REMARK    1  A    between atoms: N_2  and  O_3 
REMARK       I    between atoms: N_2  and  C_4 
REMARK    2  A    between atoms: C_4  and  C_6 
REMARK    3  A    between atoms: C_6  and  C_7 
REMARK    4  A    between atoms: C_7  and  O_8 
REMARK    5  A    between atoms: C_7  and  C_9 
REMARK    6  A    between atoms: C_12  and  N_13 
ROOT
HETATM    1  C   UNL     1       5.254  -0.395   2.621  1.00  0.00     0.160 C 
ENDROOT
BRANCH   1   2
HETATM    2  C   UNL     1       4.502  -0.018   1.339  1.00  0.00     0.141 C 
BRANCH   2   3
HETATM    3  C   UNL     1       4.739   1.394   0.852  1.00  0.00     0.245 C 
HETATM    4  N   UNL     1       4.406   2.428   1.685  1.00  0.00    -0.233 N 
HETATM    5  C   UNL     1       4.653   3.818   1.359  1.00  0.00     0.188 C 
HETATM    6  O   UNL     1       5.208   1.594  -0.272  1.00  0.00    -0.271 OA
BRANCH   4   7
HETATM    7  O   UNL     1       3.688   2.202   2.864  1.00  0.00    -0.285 OA
HETATM    8  H   UNL     1       2.975   2.866   2.829  1.00  0.00     0.245 HD
ENDBRANCH   4   7
ENDBRANCH   2   3
ENDBRANCH   1   2
BRANCH   1   9
HETATM    9  O   UNL     1       4.868  -1.743   2.944  1.00  0.00    -0.390 OA
HETATM   10  H   UNL     1       5.528  -2.334   2.542  1.00  0.00     0.210 HD
ENDBRANCH   1   9
BRANCH   1  11
HETATM   11  C   UNL     1       6.771  -0.319   2.618  1.00  0.00    -0.029 A 
HETATM   12  C   UNL     1       7.533  -0.029   1.488  1.00  0.00     0.012 A 
HETATM   13  C   UNL     1       8.930   0.072   1.564  1.00  0.00     0.030 A 
HETATM   14  C   UNL     1       9.642  -0.131   2.755  1.00  0.00     0.029 A 
HETATM   15  C   UNL     1       8.867  -0.454   3.876  1.00  0.00     0.030 A 
HETATM   16  C   UNL     1       7.465  -0.545   3.815  1.00  0.00     0.012 A 
BRANCH  14  17
HETATM   17  N   UNL     1      11.028  -0.070   2.777  1.00  0.00    -0.390 N 
HETATM   18  C   UNL     1      11.742   0.908   1.957  1.00  0.00     0.149 C 
HETATM   19  C   UNL     1      11.808  -0.643   3.867  1.00  0.00     0.149 C 
ENDBRANCH  14  17
ENDBRANCH   1  11
TORSDOF 6
