REMARK  6 active torsions:
REMARK  status: ('A' for Active; 'I' for Inactive)
REMARK    1  A    between atoms: O_2  and  C_3 
REMARK    2  A    between atoms: C_6  and  C_7 
REMARK    3  A    between atoms: C_7  and  O_8 
REMARK    4  A    between atoms: C_7  and  C_9 
REMARK    5  A    between atoms: C_9  and  C_10 
REMARK       I    between atoms: C_10  and  N_12 
REMARK    6  A    between atoms: N_12  and  O_14 
ROOT
HETATM    1  C   UNL     1       5.351   0.675  -4.764  1.00  0.00     0.160 C 
ENDROOT
BRANCH   1   2
HETATM    2  C   UNL     1       4.547   0.534  -3.488  1.00  0.00    -0.029 A 
HETATM    3  C   UNL     1       5.167   0.755  -2.250  1.00  0.00     0.012 A 
HETATM    4  C   UNL     1       4.443   0.688  -1.056  1.00  0.00     0.037 A 
HETATM    5  C   UNL     1       3.082   0.386  -1.081  1.00  0.00     0.068 A 
HETATM    6  C   UNL     1       2.458   0.146  -2.306  1.00  0.00     0.037 A 
HETATM    7  C   UNL     1       3.177   0.217  -3.500  1.00  0.00     0.012 A 
BRANCH   5   8
HETATM    8  O   UNL     1       2.257   0.304   0.008  1.00  0.00    -0.356 OA
HETATM    9  C   UNL     1       2.854   0.555   1.274  1.00  0.00     0.210 C 
ENDBRANCH   5   8
ENDBRANCH   1   2
BRANCH   1  10
HETATM   10  O   UNL     1       5.390  -0.584  -5.452  1.00  0.00    -0.390 OA
HETATM   11  H   UNL     1       4.586  -1.081  -5.224  1.00  0.00     0.210 HD
ENDBRANCH   1  10
BRANCH   1  12
HETATM   12  C   UNL     1       4.795   1.697  -5.749  1.00  0.00     0.141 C 
BRANCH  12  13
HETATM   13  C   UNL     1       4.753   3.116  -5.224  1.00  0.00     0.245 C 
HETATM   14  O   UNL     1       5.187   3.454  -4.123  1.00  0.00    -0.271 OA
HETATM   15  N   UNL     1       4.179   4.037  -6.070  1.00  0.00    -0.233 N 
HETATM   16  C   UNL     1       3.678   3.914  -7.424  1.00  0.00     0.188 C 
BRANCH  15  17
HETATM   17  O   UNL     1       4.037   5.349  -5.560  1.00  0.00    -0.285 OA
HETATM   18  H   UNL     1       4.343   5.239  -4.633  1.00  0.00     0.245 HD
ENDBRANCH  15  17
ENDBRANCH  12  13
ENDBRANCH   1  12
TORSDOF 6
