REMARK  11 active torsions:
REMARK  status: ('A' for Active; 'I' for Inactive)
REMARK    1  A    between atoms: N_2  and  O_3 
REMARK       I    between atoms: N_2  and  C_4 
REMARK    2  A    between atoms: C_4  and  C_6 
REMARK    3  A    between atoms: C_6  and  C_7 
REMARK    4  A    between atoms: C_7  and  O_8 
REMARK    5  A    between atoms: C_7  and  C_9 
REMARK    6  A    between atoms: C_12  and  O_13 
REMARK    7  A    between atoms: O_13  and  C_14 
REMARK    8  A    between atoms: C_14  and  C_15 
REMARK    9  A    between atoms: C_21  and  O_22 
REMARK   10  A    between atoms: O_22  and  C_23 
REMARK   11  A    between atoms: C_23  and  C_24 
ROOT
HETATM    1  C   UNL     1       6.817  -1.030  -2.305  1.00  0.00    -0.026 A 
HETATM    2  C   UNL     1       7.563  -1.034  -1.124  1.00  0.00     0.012 A 
HETATM    3  C   UNL     1       8.954  -1.155  -1.154  1.00  0.00     0.040 A 
HETATM    4  C   UNL     1       9.640  -1.238  -2.368  1.00  0.00     0.102 A 
HETATM    5  C   UNL     1       8.910  -1.279  -3.564  1.00  0.00     0.103 A 
HETATM    6  C   UNL     1       7.516  -1.128  -3.521  1.00  0.00     0.049 A 
ENDROOT
BRANCH   1   7
HETATM    7  C   UNL     1       5.301  -0.975  -2.363  1.00  0.00     0.160 C 
BRANCH   7   8
HETATM    8  C   UNL     1       4.529  -1.029  -1.046  1.00  0.00     0.141 C 
BRANCH   8   9
HETATM    9  C   UNL     1       4.792  -2.285  -0.242  1.00  0.00     0.245 C 
HETATM   10  N   UNL     1       4.548  -3.495  -0.850  1.00  0.00    -0.233 N 
HETATM   11  C   UNL     1       4.723  -4.748  -0.134  1.00  0.00     0.188 C 
HETATM   12  O   UNL     1       5.245  -2.207   0.904  1.00  0.00    -0.271 OA
BRANCH  10  13
HETATM   13  O   UNL     1       3.614  -3.509  -1.904  1.00  0.00    -0.285 OA
HETATM   14  H   UNL     1       3.090  -4.317  -1.768  1.00  0.00     0.245 HD
ENDBRANCH  10  13
ENDBRANCH   8   9
ENDBRANCH   7   8
BRANCH   7  15
HETATM   15  O   UNL     1       4.922   0.233  -3.037  1.00  0.00    -0.390 OA
HETATM   16  H   UNL     1       5.510   0.939  -2.717  1.00  0.00     0.210 HD
ENDBRANCH   7  15
ENDBRANCH   1   7
BRANCH   5  17
HETATM   17  O   UNL     1       9.606  -1.462  -4.737  1.00  0.00    -0.344 OA
BRANCH  17  18
HETATM   18  C   UNL     1       8.841  -2.044  -5.800  1.00  0.00     0.214 C 
BRANCH  18  19
HETATM   19  C   UNL     1       9.698  -2.770  -6.809  1.00  0.00    -0.034 A 
HETATM   20  C   UNL     1      10.924  -3.349  -6.458  1.00  0.00     0.009 A 
HETATM   21  C   UNL     1      11.636  -4.114  -7.385  1.00  0.00     0.001 A 
HETATM   22  C   UNL     1      11.129  -4.318  -8.666  1.00  0.00     0.000 A 
HETATM   23  C   UNL     1       9.909  -3.750  -9.024  1.00  0.00     0.001 A 
HETATM   24  C   UNL     1       9.195  -2.985  -8.103  1.00  0.00     0.009 A 
ENDBRANCH  18  19
ENDBRANCH  17  18
ENDBRANCH   5  17
BRANCH   4  25
HETATM   25  O   UNL     1      11.009  -1.311  -2.449  1.00  0.00    -0.344 OA
BRANCH  25  26
HETATM   26  C   UNL     1      11.717  -0.713  -1.358  1.00  0.00     0.214 C 
BRANCH  26  27
HETATM   27  C   UNL     1      13.057  -0.216  -1.837  1.00  0.00    -0.034 A 
HETATM   28  C   UNL     1      13.116   0.738  -2.864  1.00  0.00     0.009 A 
HETATM   29  C   UNL     1      14.342   1.245  -3.290  1.00  0.00     0.001 A 
HETATM   30  C   UNL     1      15.522   0.808  -2.691  1.00  0.00     0.000 A 
HETATM   31  C   UNL     1      15.475  -0.137  -1.667  1.00  0.00     0.001 A 
HETATM   32  C   UNL     1      14.248  -0.646  -1.238  1.00  0.00     0.009 A 
ENDBRANCH  26  27
ENDBRANCH  25  26
ENDBRANCH   4  25
TORSDOF 11
