REMARK  5 active torsions:
REMARK  status: ('A' for Active; 'I' for Inactive)
REMARK    1  A    between atoms: N_2  and  O_3 
REMARK       I    between atoms: N_2  and  C_4 
REMARK    2  A    between atoms: C_4  and  C_6 
REMARK    3  A    between atoms: C_6  and  C_7 
REMARK    4  A    between atoms: C_7  and  O_8 
REMARK    5  A    between atoms: C_7  and  C_9 
ROOT
HETATM    1  C   UNL     1       5.311  -0.994  -2.505  1.00  0.00     0.160 C 
ENDROOT
BRANCH   1   2
HETATM    2  C   UNL     1       4.588  -0.532  -1.239  1.00  0.00     0.141 C 
BRANCH   2   3
HETATM    3  C   UNL     1       4.893  -1.357  -0.001  1.00  0.00     0.245 C 
HETATM    4  N   UNL     1       4.656  -2.707  -0.070  1.00  0.00    -0.233 N 
HETATM    5  C   UNL     1       4.868  -3.582   1.071  1.00  0.00     0.188 C 
HETATM    6  O   UNL     1       5.373  -0.821   1.005  1.00  0.00    -0.271 OA
BRANCH   4   7
HETATM    7  O   UNL     1       3.770  -3.182  -1.055  1.00  0.00    -0.285 OA
HETATM    8  H   UNL     1       3.239  -3.866  -0.613  1.00  0.00     0.245 HD
ENDBRANCH   4   7
ENDBRANCH   2   3
ENDBRANCH   1   2
BRANCH   1   9
HETATM    9  O   UNL     1       4.856  -0.153  -3.578  1.00  0.00    -0.390 OA
HETATM   10  H   UNL     1       5.411   0.645  -3.572  1.00  0.00     0.210 HD
ENDBRANCH   1   9
BRANCH   1  11
HETATM   11  C   UNL     1       6.832  -0.983  -2.515  1.00  0.00    -0.029 A 
HETATM   12  C   UNL     1       7.618  -0.500  -1.459  1.00  0.00     0.011 A 
HETATM   13  C   UNL     1       9.014  -0.563  -1.514  1.00  0.00     0.024 A 
HETATM   14  C   UNL     1       9.644  -1.085  -2.639  1.00  0.00     0.034 A 
HETATM   15 CL   UNL     1      11.361  -1.153  -2.704  1.00  0.00    -0.084 Cl
HETATM   16  C   UNL     1       8.888  -1.550  -3.710  1.00  0.00     0.024 A 
HETATM   17  C   UNL     1       7.493  -1.503  -3.645  1.00  0.00     0.011 A 
ENDBRANCH   1  11
TORSDOF 5
