REMARK  7 active torsions:
REMARK  status: ('A' for Active; 'I' for Inactive)
REMARK    1  A    between atoms: O_2  and  C_3 
REMARK    2  A    between atoms: C_6  and  C_7 
REMARK    3  A    between atoms: C_7  and  O_8 
REMARK    4  A    between atoms: C_7  and  C_9 
REMARK    5  A    between atoms: C_9  and  C_10 
REMARK       I    between atoms: C_10  and  N_12 
REMARK    6  A    between atoms: N_12  and  O_14 
REMARK    7  A    between atoms: C_16  and  O_17 
ROOT
HETATM    1  C   UNL     1       2.966   0.958   0.583  1.00  0.00     0.101 A 
HETATM    2  C   UNL     1       2.568   1.362   1.861  1.00  0.00     0.040 A 
HETATM    3  C   UNL     1       3.315   2.297   2.583  1.00  0.00     0.012 A 
HETATM    4  C   UNL     1       4.480   2.856   2.046  1.00  0.00    -0.026 A 
HETATM    5  C   UNL     1       4.883   2.440   0.771  1.00  0.00     0.049 A 
HETATM    6  C   UNL     1       4.136   1.508   0.034  1.00  0.00     0.102 A 
ENDROOT
BRANCH   4   7
HETATM    7  C   UNL     1       5.253   3.889   2.842  1.00  0.00     0.160 C 
BRANCH   7   8
HETATM    8  O   UNL     1       6.561   3.386   3.151  1.00  0.00    -0.390 OA
HETATM    9  H   UNL     1       6.769   2.668   2.528  1.00  0.00     0.210 HD
ENDBRANCH   7   8
BRANCH   7  10
HETATM   10  C   UNL     1       5.448   5.227   2.132  1.00  0.00     0.141 C 
BRANCH  10  11
HETATM   11  C   UNL     1       4.158   5.954   1.836  1.00  0.00     0.245 C 
HETATM   12  O   UNL     1       3.053   5.569   2.214  1.00  0.00    -0.271 OA
HETATM   13  N   UNL     1       4.280   7.105   1.093  1.00  0.00    -0.233 N 
HETATM   14  C   UNL     1       5.453   7.832   0.648  1.00  0.00     0.188 C 
BRANCH  13  15
HETATM   15  O   UNL     1       3.077   7.766   0.758  1.00  0.00    -0.285 OA
HETATM   16  H   UNL     1       2.402   7.143   1.109  1.00  0.00     0.245 HD
ENDBRANCH  13  15
ENDBRANCH  10  11
ENDBRANCH   7  10
ENDBRANCH   4   7
BRANCH   6  17
HETATM   17  O   UNL     1       4.698   1.210  -1.182  1.00  0.00    -0.353 OA
HETATM   18  C   UNL     1       3.792   0.918  -2.239  1.00  0.00     0.210 C 
ENDBRANCH   6  17
BRANCH   1  19
HETATM   19  O   UNL     1       2.304  -0.008  -0.130  1.00  0.00    -0.353 OA
HETATM   20  C   UNL     1       0.920  -0.180   0.157  1.00  0.00     0.210 C 
ENDBRANCH   1  19
TORSDOF 7
