REMARK  5 active torsions:
REMARK  status: ('A' for Active; 'I' for Inactive)
REMARK    1  A    between atoms: N_2  and  O_3 
REMARK       I    between atoms: N_2  and  C_4 
REMARK    2  A    between atoms: C_4  and  C_6 
REMARK    3  A    between atoms: C_6  and  C_7 
REMARK    4  A    between atoms: C_7  and  O_8 
REMARK    5  A    between atoms: C_7  and  C_9 
ROOT
HETATM    1  C   UNL     1       5.220   1.597  -2.307  1.00  0.00     0.160 C 
ENDROOT
BRANCH   1   2
HETATM    2  C   UNL     1       4.582   0.786  -1.181  1.00  0.00     0.141 C 
BRANCH   2   3
HETATM    3  C   UNL     1       3.072   0.877  -1.258  1.00  0.00     0.245 C 
HETATM    4  N   UNL     1       2.460   0.319  -2.364  1.00  0.00    -0.233 N 
HETATM    5  C   UNL     1       1.020   0.153  -2.393  1.00  0.00     0.188 C 
HETATM    6  O   UNL     1       2.445   1.482  -0.382  1.00  0.00    -0.271 OA
BRANCH   4   7
HETATM    7  O   UNL     1       3.125  -0.777  -2.957  1.00  0.00    -0.285 OA
HETATM    8  H   UNL     1       3.168  -0.493  -3.890  1.00  0.00     0.245 HD
ENDBRANCH   4   7
ENDBRANCH   2   3
ENDBRANCH   1   2
BRANCH   1   9
HETATM    9  O   UNL     1       4.842   2.973  -2.257  1.00  0.00    -0.390 OA
HETATM   10  H   UNL     1       4.734   3.231  -1.325  1.00  0.00     0.210 HD
ENDBRANCH   1   9
BRANCH   1  11
HETATM   11  C   UNL     1       6.732   1.547  -2.295  1.00  0.00    -0.028 A 
HETATM   12  C   UNL     1       7.475   2.059  -1.218  1.00  0.00     0.010 A 
HETATM   13  C   UNL     1       8.872   2.043  -1.241  1.00  0.00     0.002 A 
HETATM   14  C   UNL     1       9.546   1.513  -2.340  1.00  0.00     0.019 A 
HETATM   15  C   UNL     1       8.820   1.002  -3.413  1.00  0.00     0.011 A 
HETATM   16 BR   UNL     1       9.730   0.297  -4.912  1.00  0.00    -0.051 Br
HETATM   17  C   UNL     1       7.424   1.014  -3.394  1.00  0.00     0.028 A 
ENDBRANCH   1  11
TORSDOF 5
