REMARK  6 active torsions:
REMARK  status: ('A' for Active; 'I' for Inactive)
REMARK    1  A    between atoms: O_2  and  C_3 
REMARK    2  A    between atoms: C_8  and  C_9 
REMARK    3  A    between atoms: C_9  and  O_10 
REMARK    4  A    between atoms: C_9  and  C_11 
REMARK    5  A    between atoms: C_11  and  C_12 
REMARK       I    between atoms: C_12  and  N_14 
REMARK    6  A    between atoms: N_14  and  O_16 
ROOT
HETATM    1  C   UNL     1       4.732   1.721  -0.659  1.00  0.00     0.162 C 
ENDROOT
BRANCH   1   2
HETATM    2  C   UNL     1       4.263   1.432   0.758  1.00  0.00     0.004 A 
HETATM    3  C   UNL     1       3.993   0.137   1.237  1.00  0.00     0.077 A 
HETATM    4  C   UNL     1       3.506  -0.034   2.540  1.00  0.00     0.037 A 
HETATM    5  C   UNL     1       3.305   1.068   3.374  1.00  0.00     0.003 A 
HETATM    6  C   UNL     1       3.601   2.347   2.921  1.00  0.00     0.001 A 
HETATM    7  C   UNL     1       4.078   2.527   1.625  1.00  0.00     0.012 A 
BRANCH   3   8
HETATM    8  O   UNL     1       4.284  -0.899   0.385  1.00  0.00    -0.355 OA
HETATM    9  C   UNL     1       3.687  -2.158   0.682  1.00  0.00     0.210 C 
ENDBRANCH   3   8
ENDBRANCH   1   2
BRANCH   1  10
HETATM   10  O   UNL     1       5.982   1.056  -0.899  1.00  0.00    -0.390 OA
HETATM   11  H   UNL     1       5.901   0.172  -0.494  1.00  0.00     0.210 HD
ENDBRANCH   1  10
BRANCH   1  12
HETATM   12  C   UNL     1       3.767   1.301  -1.769  1.00  0.00     0.141 C 
BRANCH  12  13
HETATM   13  C   UNL     1       2.437   2.019  -1.755  1.00  0.00     0.245 C 
HETATM   14  O   UNL     1       2.166   2.949  -0.988  1.00  0.00    -0.271 OA
HETATM   15  N   UNL     1       1.513   1.571  -2.669  1.00  0.00    -0.233 N 
HETATM   16  C   UNL     1       1.674   0.719  -3.831  1.00  0.00     0.188 C 
BRANCH  15  17
HETATM   17  O   UNL     1       0.275   2.259  -2.685  1.00  0.00    -0.285 OA
HETATM   18  H   UNL     1       0.375   2.874  -1.929  1.00  0.00     0.245 HD
ENDBRANCH  15  17
ENDBRANCH  12  13
ENDBRANCH   1  12
TORSDOF 6
