155547948.0
 OpenBabel09302502333D

 31 31  0  0  1  0  0  0  0  0999 V2000
    0.7027    1.3676    4.1361 C   0  0  0  0  0  0  0  0  0  0  0  0
    2.0619    1.7846    4.1036 O   0  0  0  0  0  0  0  0  0  0  0  0
    2.8799    1.1414    3.2155 C   0  0  0  0  0  0  0  0  0  0  0  0
    2.5180    0.0726    2.3954 C   0  0  0  0  0  0  0  0  0  0  0  0
    3.4538   -0.4817    1.5204 C   0  0  0  0  0  0  0  0  0  0  0  0
    4.7486    0.0315    1.4574 C   0  0  0  0  0  0  0  0  0  0  0  0
    5.1347    1.1019    2.2775 C   0  0  0  0  0  0  0  0  0  0  0  0
    6.5479    1.6429    2.1827 C   0  0  3  0  0  0  0  0  0  0  0  0
    6.5131    3.0158    1.7632 O   0  0  0  0  0  0  0  0  0  0  0  0
    7.3484    1.5951    3.4806 C   0  0  0  0  0  0  0  0  0  0  0  0
    7.6209    0.1964    3.9830 C   0  0  0  0  0  0  0  0  0  0  0  0
    7.2949   -0.8248    3.3805 O   0  0  0  0  0  0  0  0  0  0  0  0
    8.2748    0.1166    5.1885 N   0  0  0  0  0  0  0  0  0  0  0  0
    8.8713    1.1416    6.0214 C   0  0  0  0  0  0  0  0  0  0  0  0
    8.4818   -1.1823    5.7044 O   0  0  0  0  0  0  0  0  0  0  0  0
    4.1850    1.6411    3.1605 C   0  0  0  0  0  0  0  0  0  0  0  0
    0.1678    2.0263    4.8273 H   0  0  0  0  0  0  0  0  0  0  0  0
    0.6175    0.3440    4.5144 H   0  0  0  0  0  0  0  0  0  0  0  0
    0.2298    1.4675    3.1529 H   0  0  0  0  0  0  0  0  0  0  0  0
    1.5231   -0.3566    2.4148 H   0  0  0  0  0  0  0  0  0  0  0  0
    3.1752   -1.3215    0.8876 H   0  0  0  0  0  0  0  0  0  0  0  0
    5.4638   -0.4242    0.7746 H   0  0  0  0  0  0  0  0  0  0  0  0
    7.1015    1.1027    1.4047 H   0  0  0  0  0  0  0  0  0  0  0  0
    5.6552    3.3937    2.0225 H   0  0  0  0  0  0  0  0  0  0  0  0
    6.8368    2.1658    4.2638 H   0  0  0  0  0  0  0  0  0  0  0  0
    8.3149    2.0862    3.3085 H   0  0  0  0  0  0  0  0  0  0  0  0
    8.8025    2.1288    5.5620 H   0  0  0  0  0  0  0  0  0  0  0  0
    9.9244    0.8935    6.1847 H   0  0  0  0  0  0  0  0  0  0  0  0
    8.3525    1.1520    6.9842 H   0  0  0  0  0  0  0  0  0  0  0  0
    8.0022   -1.7370    5.0492 H   0  0  0  0  0  0  0  0  0  0  0  0
    4.4500    2.4667    3.8170 H   0  0  0  0  0  0  0  0  0  0  0  0
  1  2  1  0  0  0  0
  1 17  1  0  0  0  0
  1 18  1  0  0  0  0
  1 19  1  0  0  0  0
  2  3  1  0  0  0  0
  3  4  1  0  0  0  0
  3 16  2  0  0  0  0
  4  5  2  0  0  0  0
  4 20  1  0  0  0  0
  5  6  1  0  0  0  0
  5 21  1  0  0  0  0
  6  7  2  0  0  0  0
  6 22  1  0  0  0  0
  7  8  1  0  0  0  0
  7 16  1  0  0  0  0
  8  9  1  0  0  0  0
  8 10  1  0  0  0  0
  8 23  1  0  0  0  0
  9 24  1  0  0  0  0
 10 11  1  0  0  0  0
 10 25  1  0  0  0  0
 10 26  1  0  0  0  0
 11 12  2  0  0  0  0
 11 13  1  0  0  0  0
 13 14  1  0  0  0  0
 13 15  1  0  0  0  0
 14 27  1  0  0  0  0
 14 28  1  0  0  0  0
 14 29  1  0  0  0  0
 15 30  1  0  0  0  0
 16 31  1  0  0  0  0
M  END
>  <Line_Number>
100


> <IC50>
89200

$$$$
