145993094.0
 OpenBabel09302502333D

 52 54  0  0  0  0  0  0  0  0999 V2000
    1.0020    5.3984   -4.6416 C   0  0  0  0  0  0  0  0  0  0  0  0
    2.3755    5.2473   -4.3051 O   0  0  0  0  0  0  0  0  0  0  0  0
    2.7554    4.0541   -3.7508 C   0  0  0  0  0  0  0  0  0  0  0  0
    1.9119    2.9806   -3.4638 C   0  0  0  0  0  0  0  0  0  0  0  0
    2.4295    1.8017   -2.9196 C   0  0  0  0  0  0  0  0  0  0  0  0
    1.6958    0.6815   -2.6265 O   0  0  0  0  0  0  0  0  0  0  0  0
    0.3051    0.7169   -2.9404 C   0  0  0  0  0  0  0  0  0  0  0  0
    3.8011    1.7101   -2.6451 C   0  0  0  0  0  0  0  0  0  0  0  0
    4.6558    2.7879   -2.9216 C   0  0  0  0  0  0  0  0  0  0  0  0
    6.1310    2.6768   -2.6764 C   0  0  0  0  0  0  0  0  0  0  0  0
    6.5552    1.7442   -2.0001 O   0  0  0  0  0  0  0  0  0  0  0  0
    6.8846    3.6086   -3.3755 N   0  0  0  0  0  0  0  0  0  0  0  0
    8.1077    3.5865   -3.1085 N   0  0  0  0  0  0  0  0  0  0  0  0
    8.9035    3.4425   -4.2650 C   0  0  0  0  0  0  0  0  0  0  0  0
    8.4804    2.9205   -5.4690 C   0  0  0  0  0  0  0  0  0  0  0  0
    7.2664    2.7029   -5.9710 O   0  0  0  0  0  0  0  0  0  0  0  0
    9.6080    2.4995   -6.1335 N   0  0  0  0  0  0  0  0  0  0  0  0
    9.5944    1.5060   -7.1984 C   0  0  0  0  0  0  0  0  0  0  0  0
    9.6934    2.0893   -8.5763 C   0  0  0  0  0  0  0  0  0  0  0  0
    9.8092    1.3457   -9.6953 C   0  0  0  0  0  0  0  0  0  0  0  0
    9.8533   -0.1585   -9.7017 C   0  0  0  0  0  0  0  0  0  0  0  0
    9.8878    1.9785  -11.0574 C   0  0  0  0  0  0  0  0  0  0  0  0
   10.7304    3.0345   -5.5348 C   0  0  0  0  0  0  0  0  0  0  0  0
   12.0815    2.9583   -5.9096 C   0  0  0  0  0  0  0  0  0  0  0  0
   13.0146    3.6427   -5.1317 C   0  0  0  0  0  0  0  0  0  0  0  0
   12.6167    4.3505   -4.0013 C   0  0  0  0  0  0  0  0  0  0  0  0
   11.2757    4.3466   -3.5850 C   0  0  0  0  0  0  0  0  0  0  0  0
   10.3038    3.6800   -4.3619 C   0  0  0  0  0  0  0  0  0  0  0  0
    4.1183    3.9565   -3.4731 C   0  0  0  0  0  0  0  0  0  0  0  0
    0.8829    6.3638   -5.1419 H   0  0  0  0  0  0  0  0  0  0  0  0
    0.3807    5.4069   -3.7402 H   0  0  0  0  0  0  0  0  0  0  0  0
    0.6732    4.6221   -5.3413 H   0  0  0  0  0  0  0  0  0  0  0  0
    0.8528    3.0618   -3.6688 H   0  0  0  0  0  0  0  0  0  0  0  0
   -0.1231   -0.2622   -2.7049 H   0  0  0  0  0  0  0  0  0  0  0  0
    0.1396    0.8997   -4.0083 H   0  0  0  0  0  0  0  0  0  0  0  0
   -0.2144    1.4636   -2.3298 H   0  0  0  0  0  0  0  0  0  0  0  0
    4.1996    0.7845   -2.2311 H   0  0  0  0  0  0  0  0  0  0  0  0
    6.6673    3.2520   -5.4311 H   0  0  0  0  0  0  0  0  0  0  0  0
    8.6660    0.9317   -7.0972 H   0  0  0  0  0  0  0  0  0  0  0  0
   10.4305    0.8291   -6.9938 H   0  0  0  0  0  0  0  0  0  0  0  0
    9.6506    3.1753   -8.6520 H   0  0  0  0  0  0  0  0  0  0  0  0
    9.7839   -0.6006   -8.6996 H   0  0  0  0  0  0  0  0  0  0  0  0
   10.7937   -0.5063  -10.1420 H   0  0  0  0  0  0  0  0  0  0  0  0
    9.0224   -0.5594  -10.2881 H   0  0  0  0  0  0  0  0  0  0  0  0
    9.8541    3.0714  -11.0115 H   0  0  0  0  0  0  0  0  0  0  0  0
    9.0494    1.6429  -11.6765 H   0  0  0  0  0  0  0  0  0  0  0  0
   10.8214    1.6919  -11.5528 H   0  0  0  0  0  0  0  0  0  0  0  0
   12.3960    2.4027   -6.7882 H   0  0  0  0  0  0  0  0  0  0  0  0
   14.0633    3.6249   -5.4207 H   0  0  0  0  0  0  0  0  0  0  0  0
   13.3578    4.9067   -3.4317 H   0  0  0  0  0  0  0  0  0  0  0  0
   10.9855    4.8922   -2.6920 H   0  0  0  0  0  0  0  0  0  0  0  0
    4.7471    4.8134   -3.6956 H   0  0  0  0  0  0  0  0  0  0  0  0
  1  2  1  0  0  0  0
  1 30  1  0  0  0  0
  1 31  1  0  0  0  0
  1 32  1  0  0  0  0
  2  3  1  0  0  0  0
  3  4  1  0  0  0  0
  3 29  2  0  0  0  0
  4  5  2  0  0  0  0
  4 33  1  0  0  0  0
  5  6  1  0  0  0  0
  5  8  1  0  0  0  0
  6  7  1  0  0  0  0
  7 34  1  0  0  0  0
  7 35  1  0  0  0  0
  7 36  1  0  0  0  0
  8  9  2  0  0  0  0
  8 37  1  0  0  0  0
  9 10  1  0  0  0  0
  9 29  1  0  0  0  0
 10 11  2  0  0  0  0
 10 12  1  0  0  0  0
 12 13  2  3  0  0  0
 13 14  1  0  0  0  0
 14 15  2  0  0  0  0
 14 28  1  0  0  0  0
 15 16  1  0  0  0  0
 15 17  1  0  0  0  0
 16 38  1  0  0  0  0
 17 18  1  0  0  0  0
 17 23  1  0  0  0  0
 18 19  1  0  0  0  0
 18 39  1  0  0  0  0
 18 40  1  0  0  0  0
 19 20  2  0  0  0  0
 19 41  1  0  0  0  0
 20 21  1  0  0  0  0
 20 22  1  0  0  0  0
 21 42  1  0  0  0  0
 21 43  1  0  0  0  0
 21 44  1  0  0  0  0
 22 45  1  0  0  0  0
 22 46  1  0  0  0  0
 22 47  1  0  0  0  0
 23 24  1  0  0  0  0
 23 28  2  0  0  0  0
 24 25  2  0  0  0  0
 24 48  1  0  0  0  0
 25 26  1  0  0  0  0
 25 49  1  0  0  0  0
 26 27  2  0  0  0  0
 26 50  1  0  0  0  0
 27 28  1  0  0  0  0
 27 51  1  0  0  0  0
 29 52  1  0  0  0  0
M  END
>  <Line_Number>
101


> <IC50>
1655

$$$$
