145980667.0
 OpenBabel09302502333D

 48 50  0  0  0  0  0  0  0  0999 V2000
    1.2369   -5.5267   -4.3672 C   0  0  0  0  0  0  0  0  0  0  0  0
    2.5993   -5.1671   -4.1791 O   0  0  0  0  0  0  0  0  0  0  0  0
    2.8906   -4.3699   -3.1085 C   0  0  0  0  0  0  0  0  0  0  0  0
    1.9762   -3.8362   -2.2012 C   0  0  0  0  0  0  0  0  0  0  0  0
    2.4234   -3.0427   -1.1399 C   0  0  0  0  0  0  0  0  0  0  0  0
    3.7883   -2.7774   -0.9824 C   0  0  0  0  0  0  0  0  0  0  0  0
    4.7140   -3.3036   -1.8902 C   0  0  0  0  0  0  0  0  0  0  0  0
    6.1822   -3.0549   -1.7016 C   0  0  0  0  0  0  0  0  0  0  0  0
    6.5598   -2.1939   -0.9133 O   0  0  0  0  0  0  0  0  0  0  0  0
    6.9825   -3.9567   -2.3939 N   0  0  0  0  0  0  0  0  0  0  0  0
    8.2073   -3.7218   -2.3122 N   0  0  0  0  0  0  0  0  0  0  0  0
    8.9346   -4.8360   -1.8413 C   0  0  0  0  0  0  0  0  0  0  0  0
    8.4184   -5.8799   -1.0957 C   0  0  0  0  0  0  0  0  0  0  0  0
    7.1694   -6.2805   -0.8737 O   0  0  0  0  0  0  0  0  0  0  0  0
    9.4758   -6.4616   -0.4551 N   0  0  0  0  0  0  0  0  0  0  0  0
    9.3407   -7.2617    0.7590 C   0  0  0  0  0  0  0  0  0  0  0  0
    9.4000   -8.7431    0.5224 C   0  0  0  0  0  0  0  0  0  0  0  0
    9.4084   -9.6536    1.5176 C   0  0  0  0  0  0  0  0  0  0  0  0
    9.3617   -9.2969    2.9795 C   0  0  0  0  0  0  0  0  0  0  0  0
    9.4446  -11.1311    1.2358 C   0  0  0  0  0  0  0  0  0  0  0  0
   10.6661   -6.0132   -0.9948 C   0  0  0  0  0  0  0  0  0  0  0  0
   11.9907   -6.3786   -0.7126 C   0  0  0  0  0  0  0  0  0  0  0  0
   13.0084   -5.7762   -1.4537 C   0  0  0  0  0  0  0  0  0  0  0  0
   12.7148   -4.8221   -2.4243 C   0  0  0  0  0  0  0  0  0  0  0  0
   11.3947   -4.4050   -2.6440 C   0  0  0  0  0  0  0  0  0  0  0  0
   10.3440   -5.0092   -1.9205 C   0  0  0  0  0  0  0  0  0  0  0  0
    4.2533   -4.0953   -2.9516 C   0  0  0  0  0  0  0  0  0  0  0  0
    1.1867   -6.2004   -5.2281 H   0  0  0  0  0  0  0  0  0  0  0  0
    0.6282   -4.6460   -4.5946 H   0  0  0  0  0  0  0  0  0  0  0  0
    0.8451   -6.0670   -3.4993 H   0  0  0  0  0  0  0  0  0  0  0  0
    0.9094   -4.0197   -2.2915 H   0  0  0  0  0  0  0  0  0  0  0  0
    1.7040   -2.6355   -0.4315 H   0  0  0  0  0  0  0  0  0  0  0  0
    4.1209   -2.1714   -0.1410 H   0  0  0  0  0  0  0  0  0  0  0  0
    6.6285   -5.8503   -1.5610 H   0  0  0  0  0  0  0  0  0  0  0  0
    8.3834   -6.9930    1.2172 H   0  0  0  0  0  0  0  0  0  0  0  0
   10.1393   -6.9386    1.4313 H   0  0  0  0  0  0  0  0  0  0  0  0
    9.4173   -9.0743   -0.5146 H   0  0  0  0  0  0  0  0  0  0  0  0
    9.3326   -8.2196    3.1621 H   0  0  0  0  0  0  0  0  0  0  0  0
   10.2466   -9.6908    3.4923 H   0  0  0  0  0  0  0  0  0  0  0  0
    8.4678   -9.7266    3.4433 H   0  0  0  0  0  0  0  0  0  0  0  0
    9.4721  -11.3494    0.1634 H   0  0  0  0  0  0  0  0  0  0  0  0
    8.5562  -11.6157    1.6539 H   0  0  0  0  0  0  0  0  0  0  0  0
   10.3327  -11.5798    1.6927 H   0  0  0  0  0  0  0  0  0  0  0  0
   12.2255   -7.1191    0.0464 H   0  0  0  0  0  0  0  0  0  0  0  0
   14.0417   -6.0628   -1.2700 H   0  0  0  0  0  0  0  0  0  0  0  0
   13.5217   -4.3921   -3.0128 H   0  0  0  0  0  0  0  0  0  0  0  0
   11.1820   -3.6474   -3.3933 H   0  0  0  0  0  0  0  0  0  0  0  0
    4.9451   -4.5173   -3.6779 H   0  0  0  0  0  0  0  0  0  0  0  0
  1  2  1  0  0  0  0
  1 28  1  0  0  0  0
  1 29  1  0  0  0  0
  1 30  1  0  0  0  0
  2  3  1  0  0  0  0
  3  4  1  0  0  0  0
  3 27  2  0  0  0  0
  4  5  2  0  0  0  0
  4 31  1  0  0  0  0
  5  6  1  0  0  0  0
  5 32  1  0  0  0  0
  6  7  2  0  0  0  0
  6 33  1  0  0  0  0
  7  8  1  0  0  0  0
  7 27  1  0  0  0  0
  8  9  2  0  0  0  0
  8 10  1  0  0  0  0
 10 11  2  3  0  0  0
 11 12  1  0  0  0  0
 12 13  2  0  0  0  0
 12 26  1  0  0  0  0
 13 14  1  0  0  0  0
 13 15  1  0  0  0  0
 14 34  1  0  0  0  0
 15 16  1  0  0  0  0
 15 21  1  0  0  0  0
 16 17  1  0  0  0  0
 16 35  1  0  0  0  0
 16 36  1  0  0  0  0
 17 18  2  0  0  0  0
 17 37  1  0  0  0  0
 18 19  1  0  0  0  0
 18 20  1  0  0  0  0
 19 38  1  0  0  0  0
 19 39  1  0  0  0  0
 19 40  1  0  0  0  0
 20 41  1  0  0  0  0
 20 42  1  0  0  0  0
 20 43  1  0  0  0  0
 21 22  1  0  0  0  0
 21 26  2  0  0  0  0
 22 23  2  0  0  0  0
 22 44  1  0  0  0  0
 23 24  1  0  0  0  0
 23 45  1  0  0  0  0
 24 25  2  0  0  0  0
 24 46  1  0  0  0  0
 25 26  1  0  0  0  0
 25 47  1  0  0  0  0
 27 48  1  0  0  0  0
M  END
>  <Line_Number>
102


> <IC50>
11705

$$$$
