145989286.0
 OpenBabel09302502333D

 47 49  0  0  0  0  0  0  0  0999 V2000
    1.0114    0.0935    0.2102 C   0  0  0  0  0  0  0  0  0  0  0  0
    2.4918    0.3576    0.1649 C   0  0  0  0  0  0  0  0  0  0  0  0
    3.0534    0.9297   -1.1059 C   0  0  0  0  0  0  0  0  0  0  0  0
    3.2686    0.0463    1.2242 C   0  0  0  0  0  0  0  0  0  0  0  0
    4.7569    0.2455    1.3081 C   0  0  0  0  0  0  0  0  0  0  0  0
    5.1879    0.5230    2.6771 N   0  0  0  0  0  0  0  0  0  0  0  0
    5.2941    1.7732    3.2598 C   0  0  0  0  0  0  0  0  0  0  0  0
    4.9806    2.9103    2.6369 O   0  0  0  0  0  0  0  0  0  0  0  0
    5.7834    1.5712    4.5393 C   0  0  0  0  0  0  0  0  0  0  0  0
    6.1118    2.5393    5.5066 N   0  0  0  0  0  0  0  0  0  0  0  0
    5.4326    3.5802    5.4070 N   0  0  0  0  0  0  0  0  0  0  0  0
    5.8274    4.5802    6.2691 C   0  0  0  0  0  0  0  0  0  0  0  0
    6.7442    4.5292    7.0882 O   0  0  0  0  0  0  0  0  0  0  0  0
    5.0151    5.8383    6.1703 C   0  0  0  0  0  0  0  0  0  0  0  0
    5.3416    6.9467    6.9654 C   0  0  0  0  0  0  0  0  0  0  0  0
    4.5464    8.0989    6.9323 C   0  0  0  0  0  0  0  0  0  0  0  0
    3.4137    8.1550    6.1123 C   0  0  0  0  0  0  0  0  0  0  0  0
    2.5004    9.3457    6.1272 C   0  0  0  0  0  0  0  0  0  0  0  0
    3.1171    7.0661    5.2850 C   0  0  0  0  0  0  0  0  0  0  0  0
    3.9112    5.9174    5.3116 C   0  0  0  0  0  0  0  0  0  0  0  0
    5.9713    0.1793    4.7484 C   0  0  0  0  0  0  0  0  0  0  0  0
    6.4316   -0.6049    5.8276 C   0  0  0  0  0  0  0  0  0  0  0  0
    6.5019   -1.9951    5.6954 C   0  0  0  0  0  0  0  0  0  0  0  0
    6.1223   -2.6138    4.5083 C   0  0  0  0  0  0  0  0  0  0  0  0
    5.6593   -1.8610    3.4256 C   0  0  0  0  0  0  0  0  0  0  0  0
    5.5917   -0.4629    3.5663 C   0  0  0  0  0  0  0  0  0  0  0  0
    0.5179    0.3773   -0.7239 H   0  0  0  0  0  0  0  0  0  0  0  0
    0.5420    0.6649    1.0171 H   0  0  0  0  0  0  0  0  0  0  0  0
    0.8152   -0.9739    0.3702 H   0  0  0  0  0  0  0  0  0  0  0  0
    2.2764    1.0915   -1.8574 H   0  0  0  0  0  0  0  0  0  0  0  0
    3.7893    0.2450   -1.5391 H   0  0  0  0  0  0  0  0  0  0  0  0
    3.5305    1.8951   -0.9146 H   0  0  0  0  0  0  0  0  0  0  0  0
    2.7984   -0.3978    2.1022 H   0  0  0  0  0  0  0  0  0  0  0  0
    5.1089    1.0709    0.6819 H   0  0  0  0  0  0  0  0  0  0  0  0
    5.2774   -0.6552    0.9668 H   0  0  0  0  0  0  0  0  0  0  0  0
    4.5444    2.7269    1.7892 H   0  0  0  0  0  0  0  0  0  0  0  0
    6.2067    6.9155    7.6252 H   0  0  0  0  0  0  0  0  0  0  0  0
    4.8093    8.9429    7.5669 H   0  0  0  0  0  0  0  0  0  0  0  0
    2.8282   10.0961    6.8538 H   0  0  0  0  0  0  0  0  0  0  0  0
    1.4894    9.0320    6.4090 H   0  0  0  0  0  0  0  0  0  0  0  0
    2.4676    9.8166    5.1400 H   0  0  0  0  0  0  0  0  0  0  0  0
    2.2523    7.0978    4.6254 H   0  0  0  0  0  0  0  0  0  0  0  0
    3.6421    5.0842    4.6662 H   0  0  0  0  0  0  0  0  0  0  0  0
    6.7304   -0.1279    6.7578 H   0  0  0  0  0  0  0  0  0  0  0  0
    6.8593   -2.5968    6.5293 H   0  0  0  0  0  0  0  0  0  0  0  0
    6.1885   -3.6950    4.4187 H   0  0  0  0  0  0  0  0  0  0  0  0
    5.3666   -2.3600    2.5077 H   0  0  0  0  0  0  0  0  0  0  0  0
  1  2  1  0  0  0  0
  1 27  1  0  0  0  0
  1 28  1  0  0  0  0
  1 29  1  0  0  0  0
  2  3  1  0  0  0  0
  2  4  2  0  0  0  0
  3 30  1  0  0  0  0
  3 31  1  0  0  0  0
  3 32  1  0  0  0  0
  4  5  1  0  0  0  0
  4 33  1  0  0  0  0
  5  6  1  0  0  0  0
  5 34  1  0  0  0  0
  5 35  1  0  0  0  0
  6  7  1  0  0  0  0
  6 26  1  0  0  0  0
  7  8  1  0  0  0  0
  7  9  2  0  0  0  0
  8 36  1  0  0  0  0
  9 10  1  0  0  0  0
  9 21  1  0  0  0  0
 10 11  2  3  0  0  0
 11 12  1  0  0  0  0
 12 13  2  0  0  0  0
 12 14  1  0  0  0  0
 14 15  1  0  0  0  0
 14 20  2  0  0  0  0
 15 16  2  0  0  0  0
 15 37  1  0  0  0  0
 16 17  1  0  0  0  0
 16 38  1  0  0  0  0
 17 18  1  0  0  0  0
 17 19  2  0  0  0  0
 18 39  1  0  0  0  0
 18 40  1  0  0  0  0
 18 41  1  0  0  0  0
 19 20  1  0  0  0  0
 19 42  1  0  0  0  0
 20 43  1  0  0  0  0
 21 22  1  0  0  0  0
 21 26  2  0  0  0  0
 22 23  2  0  0  0  0
 22 44  1  0  0  0  0
 23 24  1  0  0  0  0
 23 45  1  0  0  0  0
 24 25  2  0  0  0  0
 24 46  1  0  0  0  0
 25 26  1  0  0  0  0
 25 47  1  0  0  0  0
M  END
>  <Line_Number>
103


> <IC50>
44000

$$$$
