145990691.0
 OpenBabel09302502333D

 48 50  0  0  0  0  0  0  0  0999 V2000
    2.7539   10.5932   -3.7403 C   0  0  0  0  0  0  0  0  0  0  0  0
    3.9179   10.0416   -4.3450 O   0  0  0  0  0  0  0  0  0  0  0  0
    3.9129    8.6897   -4.5561 C   0  0  0  0  0  0  0  0  0  0  0  0
    2.8906    7.8179   -4.1869 C   0  0  0  0  0  0  0  0  0  0  0  0
    2.9978    6.4641   -4.4750 C   0  0  0  0  0  0  0  0  0  0  0  0
    4.1221    5.9603   -5.1348 C   0  0  0  0  0  0  0  0  0  0  0  0
    4.1536    4.5129   -5.4707 C   0  0  0  0  0  0  0  0  0  0  0  0
    3.3592    3.7683   -4.9032 O   0  0  0  0  0  0  0  0  0  0  0  0
    5.0237    4.1660   -6.4802 N   0  0  0  0  0  0  0  0  0  0  0  0
    4.7520    3.0186   -6.8676 N   0  0  0  0  0  0  0  0  0  0  0  0
    5.2755    2.6457   -8.1025 C   0  0  0  0  0  0  0  0  0  0  0  0
    4.9717    1.4120   -8.6191 C   0  0  0  0  0  0  0  0  0  0  0  0
    4.1632    0.4557   -8.1731 O   0  0  0  0  0  0  0  0  0  0  0  0
    5.6918    1.2740   -9.7786 N   0  0  0  0  0  0  0  0  0  0  0  0
    5.8961    0.0067  -10.4669 C   0  0  0  0  0  0  0  0  0  0  0  0
    5.0022   -0.2114  -11.6548 C   0  0  0  0  0  0  0  0  0  0  0  0
    5.1333   -1.2549  -12.5016 C   0  0  0  0  0  0  0  0  0  0  0  0
    6.1891   -2.3190  -12.3539 C   0  0  0  0  0  0  0  0  0  0  0  0
    4.2087   -1.4585  -13.6703 C   0  0  0  0  0  0  0  0  0  0  0  0
    6.2858    2.4833  -10.1099 C   0  0  0  0  0  0  0  0  0  0  0  0
    7.0352    2.8577  -11.2369 C   0  0  0  0  0  0  0  0  0  0  0  0
    7.4588    4.1860  -11.3350 C   0  0  0  0  0  0  0  0  0  0  0  0
    7.1649    5.1071  -10.3355 C   0  0  0  0  0  0  0  0  0  0  0  0
    6.4658    4.7132   -9.1905 C   0  0  0  0  0  0  0  0  0  0  0  0
    6.0134    3.3810   -9.0665 C   0  0  0  0  0  0  0  0  0  0  0  0
    5.1601    6.8320   -5.4972 C   0  0  0  0  0  0  0  0  0  0  0  0
    5.0466    8.1937   -5.1999 C   0  0  0  0  0  0  0  0  0  0  0  0
    2.8840   11.6776   -3.6884 H   0  0  0  0  0  0  0  0  0  0  0  0
    2.6317   10.2196   -2.7179 H   0  0  0  0  0  0  0  0  0  0  0  0
    1.8605   10.3940   -4.3425 H   0  0  0  0  0  0  0  0  0  0  0  0
    1.9923    8.1559   -3.6812 H   0  0  0  0  0  0  0  0  0  0  0  0
    2.1805    5.7872   -4.1982 H   0  0  0  0  0  0  0  0  0  0  0  0
    3.6717    0.8534   -7.4243 H   0  0  0  0  0  0  0  0  0  0  0  0
    5.7363   -0.7887   -9.7306 H   0  0  0  0  0  0  0  0  0  0  0  0
    6.9484   -0.0101  -10.7622 H   0  0  0  0  0  0  0  0  0  0  0  0
    4.1984    0.5084  -11.8096 H   0  0  0  0  0  0  0  0  0  0  0  0
    6.8477   -2.1584  -11.4961 H   0  0  0  0  0  0  0  0  0  0  0  0
    6.8203   -2.3496  -13.2474 H   0  0  0  0  0  0  0  0  0  0  0  0
    5.7199   -3.2989  -12.2202 H   0  0  0  0  0  0  0  0  0  0  0  0
    3.4523   -0.6714  -13.7490 H   0  0  0  0  0  0  0  0  0  0  0  0
    3.6865   -2.4169  -13.5753 H   0  0  0  0  0  0  0  0  0  0  0  0
    4.7798   -1.4699  -14.6050 H   0  0  0  0  0  0  0  0  0  0  0  0
    7.2570    2.1500  -12.0292 H   0  0  0  0  0  0  0  0  0  0  0  0
    8.0152    4.5045  -12.2136 H   0  0  0  0  0  0  0  0  0  0  0  0
    7.4764    6.1427  -10.4452 H   0  0  0  0  0  0  0  0  0  0  0  0
    6.2463    5.4471   -8.4217 H   0  0  0  0  0  0  0  0  0  0  0  0
    6.0530    6.4713   -6.0021 H   0  0  0  0  0  0  0  0  0  0  0  0
    5.8488    8.8717   -5.4826 H   0  0  0  0  0  0  0  0  0  0  0  0
  1  2  1  0  0  0  0
  1 28  1  0  0  0  0
  1 29  1  0  0  0  0
  1 30  1  0  0  0  0
  2  3  1  0  0  0  0
  3  4  1  0  0  0  0
  3 27  2  0  0  0  0
  4  5  2  0  0  0  0
  4 31  1  0  0  0  0
  5  6  1  0  0  0  0
  5 32  1  0  0  0  0
  6  7  1  0  0  0  0
  6 26  2  0  0  0  0
  7  8  2  0  0  0  0
  7  9  1  0  0  0  0
  9 10  2  3  0  0  0
 10 11  1  0  0  0  0
 11 12  2  0  0  0  0
 11 25  1  0  0  0  0
 12 13  1  0  0  0  0
 12 14  1  0  0  0  0
 13 33  1  0  0  0  0
 14 15  1  0  0  0  0
 14 20  1  0  0  0  0
 15 16  1  0  0  0  0
 15 34  1  0  0  0  0
 15 35  1  0  0  0  0
 16 17  2  0  0  0  0
 16 36  1  0  0  0  0
 17 18  1  0  0  0  0
 17 19  1  0  0  0  0
 18 37  1  0  0  0  0
 18 38  1  0  0  0  0
 18 39  1  0  0  0  0
 19 40  1  0  0  0  0
 19 41  1  0  0  0  0
 19 42  1  0  0  0  0
 20 21  1  0  0  0  0
 20 25  2  0  0  0  0
 21 22  2  0  0  0  0
 21 43  1  0  0  0  0
 22 23  1  0  0  0  0
 22 44  1  0  0  0  0
 23 24  2  0  0  0  0
 23 45  1  0  0  0  0
 24 25  1  0  0  0  0
 24 46  1  0  0  0  0
 26 27  1  0  0  0  0
 26 47  1  0  0  0  0
 27 48  1  0  0  0  0
M  END
>  <Line_Number>
104


> <IC50>
8645

$$$$
