145988430.0
 OpenBabel09302502333D

 48 50  0  0  0  0  0  0  0  0999 V2000
    1.7144   -2.0281   -1.7931 C   0  0  0  0  0  0  0  0  0  0  0  0
    2.7981   -1.1366   -1.5674 O   0  0  0  0  0  0  0  0  0  0  0  0
    3.3261   -1.0874   -0.3049 C   0  0  0  0  0  0  0  0  0  0  0  0
    3.3463   -2.2068    0.5382 C   0  0  0  0  0  0  0  0  0  0  0  0
    3.9998   -2.1595    1.7714 C   0  0  0  0  0  0  0  0  0  0  0  0
    4.6581   -1.0007    2.1671 C   0  0  0  0  0  0  0  0  0  0  0  0
    4.6255    0.1294    1.3482 C   0  0  0  0  0  0  0  0  0  0  0  0
    3.9436    0.1085    0.1164 C   0  0  0  0  0  0  0  0  0  0  0  0
    3.8914    1.3890   -0.6768 C   0  0  0  0  0  0  0  0  0  0  0  0
    4.3018    2.4232   -0.1523 O   0  0  0  0  0  0  0  0  0  0  0  0
    3.4631    1.2587   -1.9827 N   0  0  0  0  0  0  0  0  0  0  0  0
    3.2410    2.3379   -2.5727 N   0  0  0  0  0  0  0  0  0  0  0  0
    3.8356    2.3598   -3.8516 C   0  0  0  0  0  0  0  0  0  0  0  0
    4.8628    1.5275   -4.2655 C   0  0  0  0  0  0  0  0  0  0  0  0
    5.3352    0.3832   -3.7748 O   0  0  0  0  0  0  0  0  0  0  0  0
    5.4872    2.1712   -5.2998 N   0  0  0  0  0  0  0  0  0  0  0  0
    6.8716    1.9199   -5.6875 C   0  0  0  0  0  0  0  0  0  0  0  0
    7.0264    1.0502   -6.8999 C   0  0  0  0  0  0  0  0  0  0  0  0
    8.2115    0.8023   -7.4960 C   0  0  0  0  0  0  0  0  0  0  0  0
    9.5223    1.3642   -7.0134 C   0  0  0  0  0  0  0  0  0  0  0  0
    8.3203   -0.0901   -8.7004 C   0  0  0  0  0  0  0  0  0  0  0  0
    4.7007    3.2145   -5.7516 C   0  0  0  0  0  0  0  0  0  0  0  0
    4.8796    4.0969   -6.8275 C   0  0  0  0  0  0  0  0  0  0  0  0
    3.8843    5.0461   -7.0667 C   0  0  0  0  0  0  0  0  0  0  0  0
    2.7609    5.1265   -6.2487 C   0  0  0  0  0  0  0  0  0  0  0  0
    2.6282    4.2925   -5.1307 C   0  0  0  0  0  0  0  0  0  0  0  0
    3.6127    3.3172   -4.8706 C   0  0  0  0  0  0  0  0  0  0  0  0
    1.3426   -1.8423   -2.8058 H   0  0  0  0  0  0  0  0  0  0  0  0
    0.8967   -1.8360   -1.0916 H   0  0  0  0  0  0  0  0  0  0  0  0
    2.0385   -3.0715   -1.7529 H   0  0  0  0  0  0  0  0  0  0  0  0
    2.8813   -3.1445    0.2511 H   0  0  0  0  0  0  0  0  0  0  0  0
    4.0090   -3.0377    2.4130 H   0  0  0  0  0  0  0  0  0  0  0  0
    5.1924   -0.9739    3.1140 H   0  0  0  0  0  0  0  0  0  0  0  0
    5.1456    1.0295    1.6743 H   0  0  0  0  0  0  0  0  0  0  0  0
    4.6458    0.0634   -3.1597 H   0  0  0  0  0  0  0  0  0  0  0  0
    7.3700    1.4542   -4.8295 H   0  0  0  0  0  0  0  0  0  0  0  0
    7.3334    2.9008   -5.8451 H   0  0  0  0  0  0  0  0  0  0  0  0
    6.1194    0.5934   -7.2920 H   0  0  0  0  0  0  0  0  0  0  0  0
    9.4217    2.0032   -6.1319 H   0  0  0  0  0  0  0  0  0  0  0  0
    9.9861    1.9664   -7.8007 H   0  0  0  0  0  0  0  0  0  0  0  0
   10.2039    0.5513   -6.7455 H   0  0  0  0  0  0  0  0  0  0  0  0
    7.3491   -0.4797   -9.0206 H   0  0  0  0  0  0  0  0  0  0  0  0
    8.9676   -0.9448   -8.4770 H   0  0  0  0  0  0  0  0  0  0  0  0
    8.7538    0.4626   -9.5399 H   0  0  0  0  0  0  0  0  0  0  0  0
    5.7556    4.0415   -7.4659 H   0  0  0  0  0  0  0  0  0  0  0  0
    3.9910    5.7277   -7.9080 H   0  0  0  0  0  0  0  0  0  0  0  0
    1.9834    5.8520   -6.4744 H   0  0  0  0  0  0  0  0  0  0  0  0
    1.7556    4.3754   -4.4887 H   0  0  0  0  0  0  0  0  0  0  0  0
  1  2  1  0  0  0  0
  1 28  1  0  0  0  0
  1 29  1  0  0  0  0
  1 30  1  0  0  0  0
  2  3  1  0  0  0  0
  3  4  1  0  0  0  0
  3  8  2  0  0  0  0
  4  5  2  0  0  0  0
  4 31  1  0  0  0  0
  5  6  1  0  0  0  0
  5 32  1  0  0  0  0
  6  7  2  0  0  0  0
  6 33  1  0  0  0  0
  7  8  1  0  0  0  0
  7 34  1  0  0  0  0
  8  9  1  0  0  0  0
  9 10  2  0  0  0  0
  9 11  1  0  0  0  0
 11 12  2  3  0  0  0
 12 13  1  0  0  0  0
 13 14  2  0  0  0  0
 13 27  1  0  0  0  0
 14 15  1  0  0  0  0
 14 16  1  0  0  0  0
 15 35  1  0  0  0  0
 16 17  1  0  0  0  0
 16 22  1  0  0  0  0
 17 18  1  0  0  0  0
 17 36  1  0  0  0  0
 17 37  1  0  0  0  0
 18 19  2  0  0  0  0
 18 38  1  0  0  0  0
 19 20  1  0  0  0  0
 19 21  1  0  0  0  0
 20 39  1  0  0  0  0
 20 40  1  0  0  0  0
 20 41  1  0  0  0  0
 21 42  1  0  0  0  0
 21 43  1  0  0  0  0
 21 44  1  0  0  0  0
 22 23  1  0  0  0  0
 22 27  2  0  0  0  0
 23 24  2  0  0  0  0
 23 45  1  0  0  0  0
 24 25  1  0  0  0  0
 24 46  1  0  0  0  0
 25 26  2  0  0  0  0
 25 47  1  0  0  0  0
 26 27  1  0  0  0  0
 26 48  1  0  0  0  0
M  END
>  <Line_Number>
105


> <IC50>
15600

$$$$
