145986843.0
 OpenBabel09302502333D

 44 46  0  0  0  0  0  0  0  0999 V2000
    6.9420    0.7540    1.7697 C   0  0  0  0  0  0  0  0  0  0  0  0
    5.8417    0.5828    0.7583 C   0  0  0  0  0  0  0  0  0  0  0  0
    4.9166    1.7466    0.5410 C   0  0  0  0  0  0  0  0  0  0  0  0
    5.7057   -0.5833    0.0953 C   0  0  0  0  0  0  0  0  0  0  0  0
    4.6729   -0.8671   -0.9592 C   0  0  0  0  0  0  0  0  0  0  0  0
    5.1382   -1.8539   -1.9308 N   0  0  0  0  0  0  0  0  0  0  0  0
    5.7921   -1.5935   -3.1250 C   0  0  0  0  0  0  0  0  0  0  0  0
    6.1554   -0.3742   -3.5227 O   0  0  0  0  0  0  0  0  0  0  0  0
    5.9331   -2.8129   -3.7669 C   0  0  0  0  0  0  0  0  0  0  0  0
    6.4638   -3.0638   -5.0456 N   0  0  0  0  0  0  0  0  0  0  0  0
    7.3726   -2.2728   -5.3671 N   0  0  0  0  0  0  0  0  0  0  0  0
    7.7924   -2.4281   -6.6753 C   0  0  0  0  0  0  0  0  0  0  0  0
    7.4055   -3.2721   -7.4753 O   0  0  0  0  0  0  0  0  0  0  0  0
    8.8047   -1.4172   -7.1197 C   0  0  0  0  0  0  0  0  0  0  0  0
    9.3068   -0.4541   -6.2275 C   0  0  0  0  0  0  0  0  0  0  0  0
   10.2018    0.5225   -6.6700 C   0  0  0  0  0  0  0  0  0  0  0  0
   10.5913    0.5545   -8.0079 C   0  0  0  0  0  0  0  0  0  0  0  0
   10.1066   -0.4081   -8.8929 C   0  0  0  0  0  0  0  0  0  0  0  0
   10.6172   -0.3367  -10.7130 Br  0  0  0  0  0  0  0  0  0  0  0  0
    9.2299   -1.4028   -8.4556 C   0  0  0  0  0  0  0  0  0  0  0  0
    5.3718   -3.8348   -2.9569 C   0  0  0  0  0  0  0  0  0  0  0  0
    5.2080   -5.2299   -3.0944 C   0  0  0  0  0  0  0  0  0  0  0  0
    4.5872   -5.9596   -2.0739 C   0  0  0  0  0  0  0  0  0  0  0  0
    4.1375   -5.3235   -0.9221 C   0  0  0  0  0  0  0  0  0  0  0  0
    4.2871   -3.9444   -0.7603 C   0  0  0  0  0  0  0  0  0  0  0  0
    4.8978   -3.2141   -1.7971 C   0  0  0  0  0  0  0  0  0  0  0  0
    6.9059    1.7370    2.2496 H   0  0  0  0  0  0  0  0  0  0  0  0
    7.9195    0.6625    1.2846 H   0  0  0  0  0  0  0  0  0  0  0  0
    6.8664    0.0006    2.5612 H   0  0  0  0  0  0  0  0  0  0  0  0
    5.1624    2.5934    1.1870 H   0  0  0  0  0  0  0  0  0  0  0  0
    3.8808    1.4602    0.7601 H   0  0  0  0  0  0  0  0  0  0  0  0
    4.9778    2.0963   -0.4945 H   0  0  0  0  0  0  0  0  0  0  0  0
    6.3925   -1.3992    0.3263 H   0  0  0  0  0  0  0  0  0  0  0  0
    4.3906    0.0310   -1.5172 H   0  0  0  0  0  0  0  0  0  0  0  0
    3.7574   -1.2525   -0.4989 H   0  0  0  0  0  0  0  0  0  0  0  0
    5.9437    0.2896   -2.8475 H   0  0  0  0  0  0  0  0  0  0  0  0
    8.9992   -0.4442   -5.1834 H   0  0  0  0  0  0  0  0  0  0  0  0
   10.5799    1.2668   -5.9732 H   0  0  0  0  0  0  0  0  0  0  0  0
   11.2652    1.3360   -8.3507 H   0  0  0  0  0  0  0  0  0  0  0  0
    8.8638   -2.1526   -9.1539 H   0  0  0  0  0  0  0  0  0  0  0  0
    5.5590   -5.7338   -3.9905 H   0  0  0  0  0  0  0  0  0  0  0  0
    4.4554   -7.0325   -2.1841 H   0  0  0  0  0  0  0  0  0  0  0  0
    3.6596   -5.9033   -0.1363 H   0  0  0  0  0  0  0  0  0  0  0  0
    3.9279   -3.4624    0.1415 H   0  0  0  0  0  0  0  0  0  0  0  0
  1  2  1  0  0  0  0
  1 27  1  0  0  0  0
  1 28  1  0  0  0  0
  1 29  1  0  0  0  0
  2  3  1  0  0  0  0
  2  4  2  0  0  0  0
  3 30  1  0  0  0  0
  3 31  1  0  0  0  0
  3 32  1  0  0  0  0
  4  5  1  0  0  0  0
  4 33  1  0  0  0  0
  5  6  1  0  0  0  0
  5 34  1  0  0  0  0
  5 35  1  0  0  0  0
  6  7  1  0  0  0  0
  6 26  1  0  0  0  0
  7  8  1  0  0  0  0
  7  9  2  0  0  0  0
  8 36  1  0  0  0  0
  9 10  1  0  0  0  0
  9 21  1  0  0  0  0
 10 11  2  3  0  0  0
 11 12  1  0  0  0  0
 12 13  2  0  0  0  0
 12 14  1  0  0  0  0
 14 15  1  0  0  0  0
 14 20  2  0  0  0  0
 15 16  2  0  0  0  0
 15 37  1  0  0  0  0
 16 17  1  0  0  0  0
 16 38  1  0  0  0  0
 17 18  2  0  0  0  0
 17 39  1  0  0  0  0
 18 19  1  0  0  0  0
 18 20  1  0  0  0  0
 20 40  1  0  0  0  0
 21 22  1  0  0  0  0
 21 26  2  0  0  0  0
 22 23  2  0  0  0  0
 22 41  1  0  0  0  0
 23 24  1  0  0  0  0
 23 42  1  0  0  0  0
 24 25  2  0  0  0  0
 24 43  1  0  0  0  0
 25 26  1  0  0  0  0
 25 44  1  0  0  0  0
M  END
>  <Line_Number>
106


> <IC50>
39050

$$$$
