145980829.0
 OpenBabel09302502333D

 44 46  0  0  0  0  0  0  0  0999 V2000
    1.2062   -0.0242    1.8951 C   0  0  0  0  0  0  0  0  0  0  0  0
    2.2776    0.3485    0.9021 C   0  0  0  0  0  0  0  0  0  0  0  0
    1.9304    0.2134   -0.5531 C   0  0  0  0  0  0  0  0  0  0  0  0
    3.4757    0.7794    1.3421 C   0  0  0  0  0  0  0  0  0  0  0  0
    4.6464    1.2260    0.5100 C   0  0  0  0  0  0  0  0  0  0  0  0
    5.0561    2.5857    0.8608 N   0  0  0  0  0  0  0  0  0  0  0  0
    4.5320    3.7562    0.3366 C   0  0  0  0  0  0  0  0  0  0  0  0
    3.6052    3.7971   -0.6222 O   0  0  0  0  0  0  0  0  0  0  0  0
    5.1505    4.7972    1.0026 C   0  0  0  0  0  0  0  0  0  0  0  0
    4.9357    6.1767    0.8501 N   0  0  0  0  0  0  0  0  0  0  0  0
    4.7041    6.4917   -0.3328 N   0  0  0  0  0  0  0  0  0  0  0  0
    4.5304    7.8512   -0.5092 C   0  0  0  0  0  0  0  0  0  0  0  0
    4.6864    8.7314    0.3372 O   0  0  0  0  0  0  0  0  0  0  0  0
    4.1397    8.2391   -1.9024 C   0  0  0  0  0  0  0  0  0  0  0  0
    4.0562    9.5972   -2.2395 C   0  0  0  0  0  0  0  0  0  0  0  0
    3.6962    9.9829   -3.5358 C   0  0  0  0  0  0  0  0  0  0  0  0
    3.4183    9.0096   -4.4944 C   0  0  0  0  0  0  0  0  0  0  0  0
    2.9184    9.5278   -6.2420 Br  0  0  0  0  0  0  0  0  0  0  0  0
    3.5000    7.6562   -4.1737 C   0  0  0  0  0  0  0  0  0  0  0  0
    3.8607    7.2704   -2.8792 C   0  0  0  0  0  0  0  0  0  0  0  0
    6.0890    4.2692    1.9229 C   0  0  0  0  0  0  0  0  0  0  0  0
    6.9942    4.8444    2.8394 C   0  0  0  0  0  0  0  0  0  0  0  0
    7.8372    4.0193    3.5883 C   0  0  0  0  0  0  0  0  0  0  0  0
    7.7814    2.6373    3.4428 C   0  0  0  0  0  0  0  0  0  0  0  0
    6.8785    2.0418    2.5565 C   0  0  0  0  0  0  0  0  0  0  0  0
    6.0385    2.8779    1.7995 C   0  0  0  0  0  0  0  0  0  0  0  0
    0.3235   -0.4487    1.4067 H   0  0  0  0  0  0  0  0  0  0  0  0
    0.8803    0.8604    2.4524 H   0  0  0  0  0  0  0  0  0  0  0  0
    1.5761   -0.7736    2.6034 H   0  0  0  0  0  0  0  0  0  0  0  0
    0.9327   -0.2113   -0.6994 H   0  0  0  0  0  0  0  0  0  0  0  0
    2.6405   -0.4493   -1.0587 H   0  0  0  0  0  0  0  0  0  0  0  0
    1.9396    1.1909   -1.0435 H   0  0  0  0  0  0  0  0  0  0  0  0
    3.6392    0.8353    2.4201 H   0  0  0  0  0  0  0  0  0  0  0  0
    4.4456    1.2070   -0.5655 H   0  0  0  0  0  0  0  0  0  0  0  0
    5.4965    0.5567    0.6744 H   0  0  0  0  0  0  0  0  0  0  0  0
    3.3174    2.9024   -0.8554 H   0  0  0  0  0  0  0  0  0  0  0  0
    4.2717   10.3639   -1.4959 H   0  0  0  0  0  0  0  0  0  0  0  0
    3.6362   11.0401   -3.7834 H   0  0  0  0  0  0  0  0  0  0  0  0
    3.2849    6.8944   -4.9186 H   0  0  0  0  0  0  0  0  0  0  0  0
    3.9136    6.2078   -2.6476 H   0  0  0  0  0  0  0  0  0  0  0  0
    7.0424    5.9248    2.9512 H   0  0  0  0  0  0  0  0  0  0  0  0
    8.5428    4.4646    4.2849 H   0  0  0  0  0  0  0  0  0  0  0  0
    8.4496    2.0094    4.0278 H   0  0  0  0  0  0  0  0  0  0  0  0
    6.8473    0.9610    2.4638 H   0  0  0  0  0  0  0  0  0  0  0  0
  1  2  1  0  0  0  0
  1 27  1  0  0  0  0
  1 28  1  0  0  0  0
  1 29  1  0  0  0  0
  2  3  1  0  0  0  0
  2  4  2  0  0  0  0
  3 30  1  0  0  0  0
  3 31  1  0  0  0  0
  3 32  1  0  0  0  0
  4  5  1  0  0  0  0
  4 33  1  0  0  0  0
  5  6  1  0  0  0  0
  5 34  1  0  0  0  0
  5 35  1  0  0  0  0
  6  7  1  0  0  0  0
  6 26  1  0  0  0  0
  7  8  1  0  0  0  0
  7  9  2  0  0  0  0
  8 36  1  0  0  0  0
  9 10  1  0  0  0  0
  9 21  1  0  0  0  0
 10 11  2  3  0  0  0
 11 12  1  0  0  0  0
 12 13  2  0  0  0  0
 12 14  1  0  0  0  0
 14 15  1  0  0  0  0
 14 20  2  0  0  0  0
 15 16  2  0  0  0  0
 15 37  1  0  0  0  0
 16 17  1  0  0  0  0
 16 38  1  0  0  0  0
 17 18  1  0  0  0  0
 17 19  2  0  0  0  0
 19 20  1  0  0  0  0
 19 39  1  0  0  0  0
 20 40  1  0  0  0  0
 21 22  1  0  0  0  0
 21 26  2  0  0  0  0
 22 23  2  0  0  0  0
 22 41  1  0  0  0  0
 23 24  1  0  0  0  0
 23 42  1  0  0  0  0
 24 25  2  0  0  0  0
 24 43  1  0  0  0  0
 25 26  1  0  0  0  0
 25 44  1  0  0  0  0
M  END
>  <Line_Number>
107


> <IC50>
110450

$$$$
