145981870.0
 OpenBabel09302502333D

 50 52  0  0  0  0  0  0  0  0999 V2000
    6.5457   -0.3297   -2.2993 C   0  0  0  0  0  0  0  0  0  0  0  0
    5.4253    0.0533   -1.3689 C   0  0  0  0  0  0  0  0  0  0  0  0
    4.0269   -0.2865   -1.8012 C   0  0  0  0  0  0  0  0  0  0  0  0
    5.7042    0.6323   -0.1837 C   0  0  0  0  0  0  0  0  0  0  0  0
    4.7026    1.0292    0.8650 C   0  0  0  0  0  0  0  0  0  0  0  0
    5.1102    2.2383    1.5814 N   0  0  0  0  0  0  0  0  0  0  0  0
    4.7859    3.5383    1.2345 C   0  0  0  0  0  0  0  0  0  0  0  0
    4.1181    3.8606    0.1256 O   0  0  0  0  0  0  0  0  0  0  0  0
    5.2732    4.3475    2.2451 C   0  0  0  0  0  0  0  0  0  0  0  0
    5.1760    5.7448    2.3709 N   0  0  0  0  0  0  0  0  0  0  0  0
    5.1974    6.3353    1.2716 N   0  0  0  0  0  0  0  0  0  0  0  0
    5.1353    7.7087    1.3895 C   0  0  0  0  0  0  0  0  0  0  0  0
    5.0844    8.3552    2.4339 O   0  0  0  0  0  0  0  0  0  0  0  0
    5.1609    8.4445    0.0827 C   0  0  0  0  0  0  0  0  0  0  0  0
    5.1827    9.8477    0.0747 C   0  0  0  0  0  0  0  0  0  0  0  0
    5.2338   10.5536   -1.1357 C   0  0  0  0  0  0  0  0  0  0  0  0
    5.2773   12.0543   -1.1621 C   0  0  0  0  0  0  0  0  0  0  0  0
    5.2565    9.8418   -2.3430 C   0  0  0  0  0  0  0  0  0  0  0  0
    5.2297    8.4428   -2.3536 C   0  0  0  0  0  0  0  0  0  0  0  0
    5.2569    7.6788   -3.6441 C   0  0  0  0  0  0  0  0  0  0  0  0
    5.1794    7.7497   -1.1367 C   0  0  0  0  0  0  0  0  0  0  0  0
    5.9220    3.5382    3.2160 C   0  0  0  0  0  0  0  0  0  0  0  0
    6.5886    3.7985    4.4301 C   0  0  0  0  0  0  0  0  0  0  0  0
    7.1550    2.7432    5.1521 C   0  0  0  0  0  0  0  0  0  0  0  0
    7.0678    1.4372    4.6780 C   0  0  0  0  0  0  0  0  0  0  0  0
    6.4060    1.1513    3.4805 C   0  0  0  0  0  0  0  0  0  0  0  0
    5.8325    2.2180    2.7657 C   0  0  0  0  0  0  0  0  0  0  0  0
    6.1734   -0.7784   -3.2256 H   0  0  0  0  0  0  0  0  0  0  0  0
    7.2037   -1.0641   -1.8228 H   0  0  0  0  0  0  0  0  0  0  0  0
    7.1365    0.5498   -2.5757 H   0  0  0  0  0  0  0  0  0  0  0  0
    4.0077   -0.7712   -2.7822 H   0  0  0  0  0  0  0  0  0  0  0  0
    3.4159    0.6190   -1.8748 H   0  0  0  0  0  0  0  0  0  0  0  0
    3.5623   -0.9760   -1.0886 H   0  0  0  0  0  0  0  0  0  0  0  0
    6.7490    0.8180    0.0698 H   0  0  0  0  0  0  0  0  0  0  0  0
    4.5965    0.2255    1.6007 H   0  0  0  0  0  0  0  0  0  0  0  0
    3.7058    1.2152    0.4529 H   0  0  0  0  0  0  0  0  0  0  0  0
    4.0581    3.0951   -0.4677 H   0  0  0  0  0  0  0  0  0  0  0  0
    5.1667   10.3917    1.0186 H   0  0  0  0  0  0  0  0  0  0  0  0
    5.2405   12.4776   -0.1534 H   0  0  0  0  0  0  0  0  0  0  0  0
    4.4241   12.4467   -1.7238 H   0  0  0  0  0  0  0  0  0  0  0  0
    6.2045   12.3933   -1.6359 H   0  0  0  0  0  0  0  0  0  0  0  0
    5.2985   10.3885   -3.2840 H   0  0  0  0  0  0  0  0  0  0  0  0
    5.3213    8.3496   -4.5071 H   0  0  0  0  0  0  0  0  0  0  0  0
    4.3453    7.0820   -3.7477 H   0  0  0  0  0  0  0  0  0  0  0  0
    6.1275    7.0154   -3.6700 H   0  0  0  0  0  0  0  0  0  0  0  0
    5.1574    6.6619   -1.1522 H   0  0  0  0  0  0  0  0  0  0  0  0
    6.6658    4.8183    4.8021 H   0  0  0  0  0  0  0  0  0  0  0  0
    7.6697    2.9452    6.0866 H   0  0  0  0  0  0  0  0  0  0  0  0
    7.5189    0.6269    5.2469 H   0  0  0  0  0  0  0  0  0  0  0  0
    6.3486    0.1278    3.1257 H   0  0  0  0  0  0  0  0  0  0  0  0
  1  2  1  0  0  0  0
  1 28  1  0  0  0  0
  1 29  1  0  0  0  0
  1 30  1  0  0  0  0
  2  3  1  0  0  0  0
  2  4  2  0  0  0  0
  3 31  1  0  0  0  0
  3 32  1  0  0  0  0
  3 33  1  0  0  0  0
  4  5  1  0  0  0  0
  4 34  1  0  0  0  0
  5  6  1  0  0  0  0
  5 35  1  0  0  0  0
  5 36  1  0  0  0  0
  6  7  1  0  0  0  0
  6 27  1  0  0  0  0
  7  8  1  0  0  0  0
  7  9  2  0  0  0  0
  8 37  1  0  0  0  0
  9 10  1  0  0  0  0
  9 22  1  0  0  0  0
 10 11  2  3  0  0  0
 11 12  1  0  0  0  0
 12 13  2  0  0  0  0
 12 14  1  0  0  0  0
 14 15  1  0  0  0  0
 14 21  2  0  0  0  0
 15 16  2  0  0  0  0
 15 38  1  0  0  0  0
 16 17  1  0  0  0  0
 16 18  1  0  0  0  0
 17 39  1  0  0  0  0
 17 40  1  0  0  0  0
 17 41  1  0  0  0  0
 18 19  2  0  0  0  0
 18 42  1  0  0  0  0
 19 20  1  0  0  0  0
 19 21  1  0  0  0  0
 20 43  1  0  0  0  0
 20 44  1  0  0  0  0
 20 45  1  0  0  0  0
 21 46  1  0  0  0  0
 22 23  1  0  0  0  0
 22 27  2  0  0  0  0
 23 24  2  0  0  0  0
 23 47  1  0  0  0  0
 24 25  1  0  0  0  0
 24 48  1  0  0  0  0
 25 26  2  0  0  0  0
 25 49  1  0  0  0  0
 26 27  1  0  0  0  0
 26 50  1  0  0  0  0
M  END
>  <Line_Number>
108


> <IC50>
5565

$$$$
