145993983.0
 OpenBabel09302502333D

 55 58  0  0  0  0  0  0  0  0999 V2000
    1.1095    0.9809   -0.1719 C   0  0  0  0  0  0  0  0  0  0  0  0
    2.6075    0.8226   -0.1509 C   0  0  0  0  0  0  0  0  0  0  0  0
    3.3557    1.5166    0.9503 C   0  0  0  0  0  0  0  0  0  0  0  0
    3.2223    0.0474   -1.0663 C   0  0  0  0  0  0  0  0  0  0  0  0
    4.7019   -0.2215   -1.1286 C   0  0  0  0  0  0  0  0  0  0  0  0
    5.1562   -0.4410   -2.5020 N   0  0  0  0  0  0  0  0  0  0  0  0
    5.6067    0.5276   -3.3781 C   0  0  0  0  0  0  0  0  0  0  0  0
    5.6523    1.8299   -3.0786 O   0  0  0  0  0  0  0  0  0  0  0  0
    5.9612   -0.1245   -4.5401 C   0  0  0  0  0  0  0  0  0  0  0  0
    6.4408    0.4276   -5.7367 N   0  0  0  0  0  0  0  0  0  0  0  0
    7.0047    1.5347   -5.5998 N   0  0  0  0  0  0  0  0  0  0  0  0
    7.3913    2.0665   -6.8076 C   0  0  0  0  0  0  0  0  0  0  0  0
    7.2137    1.5680   -7.9189 O   0  0  0  0  0  0  0  0  0  0  0  0
    8.0975    3.3806   -6.7359 C   0  0  0  0  0  0  0  0  0  0  0  0
    7.9628    4.2477   -5.6429 C   0  0  0  0  0  0  0  0  0  0  0  0
    8.6054    5.4951   -5.6518 C   0  0  0  0  0  0  0  0  0  0  0  0
    9.3951    5.8770   -6.7405 C   0  0  0  0  0  0  0  0  0  0  0  0
   10.0030    7.1180   -6.6602 O   0  0  0  0  0  0  0  0  0  0  0  0
   11.1920    7.3012   -7.3236 C   0  0  0  0  0  0  0  0  0  0  0  0
   11.4187    8.5478   -7.9264 C   0  0  0  0  0  0  0  0  0  0  0  0
   12.5575    8.7418   -8.7145 C   0  0  0  0  0  0  0  0  0  0  0  0
   13.4677    7.6997   -8.8981 C   0  0  0  0  0  0  0  0  0  0  0  0
   13.2859    6.4895   -8.2331 C   0  0  0  0  0  0  0  0  0  0  0  0
   12.1751    6.3135   -7.4107 C   0  0  0  0  0  0  0  0  0  0  0  0
    9.5015    5.0193   -7.8436 C   0  0  0  0  0  0  0  0  0  0  0  0
    8.8835    3.7679   -7.8288 C   0  0  0  0  0  0  0  0  0  0  0  0
    5.7030   -1.5169   -4.3916 C   0  0  0  0  0  0  0  0  0  0  0  0
    5.8397   -2.6441   -5.2253 C   0  0  0  0  0  0  0  0  0  0  0  0
    5.4923   -3.9125   -4.7405 C   0  0  0  0  0  0  0  0  0  0  0  0
    5.0116   -4.0660   -3.4444 C   0  0  0  0  0  0  0  0  0  0  0  0
    4.8547   -2.9654   -2.6032 C   0  0  0  0  0  0  0  0  0  0  0  0
    5.2098   -1.6940   -3.0948 C   0  0  0  0  0  0  0  0  0  0  0  0
    0.7567    1.6269    0.6379 H   0  0  0  0  0  0  0  0  0  0  0  0
    0.6188    0.0089   -0.0487 H   0  0  0  0  0  0  0  0  0  0  0  0
    0.7798    1.4283   -1.1151 H   0  0  0  0  0  0  0  0  0  0  0  0
    2.6868    2.0689    1.6176 H   0  0  0  0  0  0  0  0  0  0  0  0
    4.0694    2.2349    0.5360 H   0  0  0  0  0  0  0  0  0  0  0  0
    3.8963    0.7865    1.5629 H   0  0  0  0  0  0  0  0  0  0  0  0
    2.6135   -0.4533   -1.8202 H   0  0  0  0  0  0  0  0  0  0  0  0
    4.9443   -1.1157   -0.5497 H   0  0  0  0  0  0  0  0  0  0  0  0
    5.2989    0.5974   -0.7180 H   0  0  0  0  0  0  0  0  0  0  0  0
    5.1453    2.0099   -2.2714 H   0  0  0  0  0  0  0  0  0  0  0  0
    7.3473    3.9745   -4.7885 H   0  0  0  0  0  0  0  0  0  0  0  0
    8.4906    6.1697   -4.8061 H   0  0  0  0  0  0  0  0  0  0  0  0
   10.7023    9.3552   -7.8072 H   0  0  0  0  0  0  0  0  0  0  0  0
   12.7254    9.6969   -9.2069 H   0  0  0  0  0  0  0  0  0  0  0  0
   14.3251    7.8301   -9.5538 H   0  0  0  0  0  0  0  0  0  0  0  0
   13.9913    5.6755   -8.3646 H   0  0  0  0  0  0  0  0  0  0  0  0
   12.0527    5.3703   -6.8860 H   0  0  0  0  0  0  0  0  0  0  0  0
   10.0798    5.2965   -8.7194 H   0  0  0  0  0  0  0  0  0  0  0  0
    9.0149    3.1009   -8.6764 H   0  0  0  0  0  0  0  0  0  0  0  0
    6.2135   -2.5312   -6.2398 H   0  0  0  0  0  0  0  0  0  0  0  0
    5.6015   -4.7808   -5.3837 H   0  0  0  0  0  0  0  0  0  0  0  0
    4.7484   -5.0576   -3.0822 H   0  0  0  0  0  0  0  0  0  0  0  0
    4.4724   -3.1010   -1.5963 H   0  0  0  0  0  0  0  0  0  0  0  0
  1  2  1  0  0  0  0
  1 33  1  0  0  0  0
  1 34  1  0  0  0  0
  1 35  1  0  0  0  0
  2  3  1  0  0  0  0
  2  4  2  0  0  0  0
  3 36  1  0  0  0  0
  3 37  1  0  0  0  0
  3 38  1  0  0  0  0
  4  5  1  0  0  0  0
  4 39  1  0  0  0  0
  5  6  1  0  0  0  0
  5 40  1  0  0  0  0
  5 41  1  0  0  0  0
  6  7  1  0  0  0  0
  6 32  1  0  0  0  0
  7  8  1  0  0  0  0
  7  9  2  0  0  0  0
  8 42  1  0  0  0  0
  9 10  1  0  0  0  0
  9 27  1  0  0  0  0
 10 11  2  3  0  0  0
 11 12  1  0  0  0  0
 12 13  2  0  0  0  0
 12 14  1  0  0  0  0
 14 15  1  0  0  0  0
 14 26  2  0  0  0  0
 15 16  2  0  0  0  0
 15 43  1  0  0  0  0
 16 17  1  0  0  0  0
 16 44  1  0  0  0  0
 17 18  1  0  0  0  0
 17 25  2  0  0  0  0
 18 19  1  0  0  0  0
 19 20  1  0  0  0  0
 19 24  2  0  0  0  0
 20 21  2  0  0  0  0
 20 45  1  0  0  0  0
 21 22  1  0  0  0  0
 21 46  1  0  0  0  0
 22 23  2  0  0  0  0
 22 47  1  0  0  0  0
 23 24  1  0  0  0  0
 23 48  1  0  0  0  0
 24 49  1  0  0  0  0
 25 26  1  0  0  0  0
 25 50  1  0  0  0  0
 26 51  1  0  0  0  0
 27 28  1  0  0  0  0
 27 32  2  0  0  0  0
 28 29  2  0  0  0  0
 28 52  1  0  0  0  0
 29 30  1  0  0  0  0
 29 53  1  0  0  0  0
 30 31  2  0  0  0  0
 30 54  1  0  0  0  0
 31 32  1  0  0  0  0
 31 55  1  0  0  0  0
M  END
>  <Line_Number>
109


> <IC50>
32250

$$$$
