70761.0
 OpenBabel09302502333D

 20 20  0  0  0  0  0  0  0  0999 V2000
    1.0264   -0.4921   -0.1045 C   0  0  0  0  0  0  0  0  0  0  0  0
    2.4854   -0.0807    0.0316 C   0  0  0  0  0  0  0  0  0  0  0  0
    2.9320    0.7381   -1.1534 C   0  0  0  0  0  0  0  0  0  0  0  0
    3.4813    0.1174   -2.2883 C   0  0  0  0  0  0  0  0  0  0  0  0
    3.8256    0.8701   -3.4166 C   0  0  0  0  0  0  0  0  0  0  0  0
    3.6099    2.2422   -3.4069 C   0  0  0  0  0  0  0  0  0  0  0  0
    3.8990    3.0279   -4.4896 O   0  0  0  0  0  0  0  0  0  0  0  0
    3.0754    2.8633   -2.2823 C   0  0  0  0  0  0  0  0  0  0  0  0
    2.8541    4.2105   -2.2838 O   0  0  0  0  0  0  0  0  0  0  0  0
    2.7410    2.1263   -1.1551 C   0  0  0  0  0  0  0  0  0  0  0  0
    0.7132   -1.0791    0.7639 H   0  0  0  0  0  0  0  0  0  0  0  0
    0.8693   -1.1010   -1.0016 H   0  0  0  0  0  0  0  0  0  0  0  0
    0.3710    0.3830   -0.1770 H   0  0  0  0  0  0  0  0  0  0  0  0
    3.1164   -0.9717    0.1308 H   0  0  0  0  0  0  0  0  0  0  0  0
    2.6248    0.4982    0.9529 H   0  0  0  0  0  0  0  0  0  0  0  0
    3.6308   -0.9602   -2.3019 H   0  0  0  0  0  0  0  0  0  0  0  0
    4.2425    0.3678   -4.2836 H   0  0  0  0  0  0  0  0  0  0  0  0
    4.2405    2.4523   -5.1940 H   0  0  0  0  0  0  0  0  0  0  0  0
    3.1282    4.4991   -3.1777 H   0  0  0  0  0  0  0  0  0  0  0  0
    2.3172    2.6332   -0.2921 H   0  0  0  0  0  0  0  0  0  0  0  0
  1  2  1  0  0  0  0
  1 11  1  0  0  0  0
  1 12  1  0  0  0  0
  1 13  1  0  0  0  0
  2  3  1  0  0  0  0
  2 14  1  0  0  0  0
  2 15  1  0  0  0  0
  3  4  1  0  0  0  0
  3 10  2  0  0  0  0
  4  5  2  0  0  0  0
  4 16  1  0  0  0  0
  5  6  1  0  0  0  0
  5 17  1  0  0  0  0
  6  7  1  0  0  0  0
  6  8  2  0  0  0  0
  7 18  1  0  0  0  0
  8  9  1  0  0  0  0
  8 10  1  0  0  0  0
  9 19  1  0  0  0  0
 10 20  1  0  0  0  0
M  END
>  <Line_Number>
10


> <IC50>
11100

$$$$
