145979868.0
 OpenBabel09302502333D

 53 55  0  0  0  0  0  0  0  0999 V2000
    0.9278   -0.0009   -0.0613 C   0  0  0  0  0  0  0  0  0  0  0  0
    2.4090    0.2573   -0.0128 C   0  0  0  0  0  0  0  0  0  0  0  0
    2.9738    0.8090    1.2665 C   0  0  0  0  0  0  0  0  0  0  0  0
    3.1861   -0.0242   -1.0761 C   0  0  0  0  0  0  0  0  0  0  0  0
    4.6737    0.1938   -1.1274 C   0  0  0  0  0  0  0  0  0  0  0  0
    5.1366    0.4950   -2.4787 N   0  0  0  0  0  0  0  0  0  0  0  0
    5.2393    1.7585   -3.0332 C   0  0  0  0  0  0  0  0  0  0  0  0
    4.9053    2.8760   -2.3842 O   0  0  0  0  0  0  0  0  0  0  0  0
    5.7236    1.5871   -4.3166 C   0  0  0  0  0  0  0  0  0  0  0  0
    5.9438    2.5651   -5.3055 N   0  0  0  0  0  0  0  0  0  0  0  0
    6.2520    3.6862   -4.8559 N   0  0  0  0  0  0  0  0  0  0  0  0
    6.3167    4.6524   -5.8465 C   0  0  0  0  0  0  0  0  0  0  0  0
    6.1388    4.4904   -7.0427 O   0  0  0  0  0  0  0  0  0  0  0  0
    6.6374    6.0342   -5.3505 C   0  0  0  0  0  0  0  0  0  0  0  0
    6.7011    7.1288   -6.2203 C   0  0  0  0  0  0  0  0  0  0  0  0
    7.0605    8.3946   -5.7278 C   0  0  0  0  0  0  0  0  0  0  0  0
    7.3600    8.5943   -4.3666 C   0  0  0  0  0  0  0  0  0  0  0  0
    7.8393    9.9606   -3.8849 C   0  0  0  0  0  0  0  0  0  0  0  0
    6.9090   10.5929   -2.8443 C   0  0  0  0  0  0  0  0  0  0  0  0
    9.2710    9.9554   -3.3270 C   0  0  0  0  0  0  0  0  0  0  0  0
    7.2357    7.4970   -3.5023 C   0  0  0  0  0  0  0  0  0  0  0  0
    6.8862    6.2328   -3.9897 C   0  0  0  0  0  0  0  0  0  0  0  0
    5.9123    0.1974   -4.5572 C   0  0  0  0  0  0  0  0  0  0  0  0
    6.3584   -0.5676   -5.6580 C   0  0  0  0  0  0  0  0  0  0  0  0
    6.4439   -1.9608   -5.5505 C   0  0  0  0  0  0  0  0  0  0  0  0
    6.0865   -2.6025   -4.3698 C   0  0  0  0  0  0  0  0  0  0  0  0
    5.6292   -1.8718   -3.2702 C   0  0  0  0  0  0  0  0  0  0  0  0
    5.5513   -0.4716   -3.3833 C   0  0  0  0  0  0  0  0  0  0  0  0
    0.4358    0.2684    0.8785 H   0  0  0  0  0  0  0  0  0  0  0  0
    0.7269   -1.0620   -0.2433 H   0  0  0  0  0  0  0  0  0  0  0  0
    0.4615    0.5907   -0.8559 H   0  0  0  0  0  0  0  0  0  0  0  0
    2.2034    0.9647    2.0242 H   0  0  0  0  0  0  0  0  0  0  0  0
    3.4574    1.7741    1.0864 H   0  0  0  0  0  0  0  0  0  0  0  0
    3.7125    0.1150    1.6870 H   0  0  0  0  0  0  0  0  0  0  0  0
    2.7220   -0.4420   -1.9709 H   0  0  0  0  0  0  0  0  0  0  0  0
    5.2053   -0.6928   -0.7709 H   0  0  0  0  0  0  0  0  0  0  0  0
    4.9822    1.0291   -0.4914 H   0  0  0  0  0  0  0  0  0  0  0  0
    4.4493    2.6674   -1.5532 H   0  0  0  0  0  0  0  0  0  0  0  0
    6.4882    7.0086   -7.2812 H   0  0  0  0  0  0  0  0  0  0  0  0
    7.1272    9.2249   -6.4316 H   0  0  0  0  0  0  0  0  0  0  0  0
    7.8545   10.6243   -4.7601 H   0  0  0  0  0  0  0  0  0  0  0  0
    6.8253    9.9699   -1.9476 H   0  0  0  0  0  0  0  0  0  0  0  0
    5.9033   10.7482   -3.2451 H   0  0  0  0  0  0  0  0  0  0  0  0
    7.2916   11.5730   -2.5323 H   0  0  0  0  0  0  0  0  0  0  0  0
    9.3556    9.3368   -2.4255 H   0  0  0  0  0  0  0  0  0  0  0  0
    9.5856   10.9713   -3.0550 H   0  0  0  0  0  0  0  0  0  0  0  0
    9.9898    9.5828   -4.0656 H   0  0  0  0  0  0  0  0  0  0  0  0
    7.4350    7.5895   -2.4390 H   0  0  0  0  0  0  0  0  0  0  0  0
    6.8318    5.3977   -3.2954 H   0  0  0  0  0  0  0  0  0  0  0  0
    6.6375   -0.0749   -6.5859 H   0  0  0  0  0  0  0  0  0  0  0  0
    6.7924   -2.5461   -6.3982 H   0  0  0  0  0  0  0  0  0  0  0  0
    6.1604   -3.6855   -4.2996 H   0  0  0  0  0  0  0  0  0  0  0  0
    5.3458   -2.3903   -2.3593 H   0  0  0  0  0  0  0  0  0  0  0  0
  1  2  1  0  0  0  0
  1 29  1  0  0  0  0
  1 30  1  0  0  0  0
  1 31  1  0  0  0  0
  2  3  1  0  0  0  0
  2  4  2  0  0  0  0
  3 32  1  0  0  0  0
  3 33  1  0  0  0  0
  3 34  1  0  0  0  0
  4  5  1  0  0  0  0
  4 35  1  0  0  0  0
  5  6  1  0  0  0  0
  5 36  1  0  0  0  0
  5 37  1  0  0  0  0
  6  7  1  0  0  0  0
  6 28  1  0  0  0  0
  7  8  1  0  0  0  0
  7  9  2  0  0  0  0
  8 38  1  0  0  0  0
  9 10  1  0  0  0  0
  9 23  1  0  0  0  0
 10 11  2  3  0  0  0
 11 12  1  0  0  0  0
 12 13  2  0  0  0  0
 12 14  1  0  0  0  0
 14 15  1  0  0  0  0
 14 22  2  0  0  0  0
 15 16  2  0  0  0  0
 15 39  1  0  0  0  0
 16 17  1  0  0  0  0
 16 40  1  0  0  0  0
 17 18  1  0  0  0  0
 17 21  2  0  0  0  0
 18 19  1  0  0  0  0
 18 20  1  0  0  0  0
 18 41  1  0  0  0  0
 19 42  1  0  0  0  0
 19 43  1  0  0  0  0
 19 44  1  0  0  0  0
 20 45  1  0  0  0  0
 20 46  1  0  0  0  0
 20 47  1  0  0  0  0
 21 22  1  0  0  0  0
 21 48  1  0  0  0  0
 22 49  1  0  0  0  0
 23 24  1  0  0  0  0
 23 28  2  0  0  0  0
 24 25  2  0  0  0  0
 24 50  1  0  0  0  0
 25 26  1  0  0  0  0
 25 51  1  0  0  0  0
 26 27  2  0  0  0  0
 26 52  1  0  0  0  0
 27 28  1  0  0  0  0
 27 53  1  0  0  0  0
M  END
>  <Line_Number>
110


> <IC50>
21200

$$$$
