145980959.0
 OpenBabel09302502333D

 44 46  0  0  0  0  0  0  0  0999 V2000
    1.0123    0.1624    0.2170 C   0  0  0  0  0  0  0  0  0  0  0  0
    2.5014    0.3806    0.1853 C   0  0  0  0  0  0  0  0  0  0  0  0
    3.0840    0.9727   -1.0667 C   0  0  0  0  0  0  0  0  0  0  0  0
    3.2623    0.0122    1.2355 C   0  0  0  0  0  0  0  0  0  0  0  0
    4.7567    0.1558    1.3300 C   0  0  0  0  0  0  0  0  0  0  0  0
    5.1943    0.3779    2.7066 N   0  0  0  0  0  0  0  0  0  0  0  0
    5.3451    1.6055    3.3275 C   0  0  0  0  0  0  0  0  0  0  0  0
    5.0738    2.7710    2.7366 O   0  0  0  0  0  0  0  0  0  0  0  0
    5.8245    1.3474    4.5995 C   0  0  0  0  0  0  0  0  0  0  0  0
    6.1774    2.2717    5.5999 N   0  0  0  0  0  0  0  0  0  0  0  0
    5.5056    3.3220    5.5542 N   0  0  0  0  0  0  0  0  0  0  0  0
    5.9393    4.2671    6.4592 C   0  0  0  0  0  0  0  0  0  0  0  0
    6.4579    4.0469    7.5512 O   0  0  0  0  0  0  0  0  0  0  0  0
    5.7053    5.6869    6.0403 C   0  0  0  0  0  0  0  0  0  0  0  0
    6.1099    6.7326    6.8838 C   0  0  0  0  0  0  0  0  0  0  0  0
    5.8894    8.0648    6.5164 C   0  0  0  0  0  0  0  0  0  0  0  0
    5.2557    8.3564    5.3085 C   0  0  0  0  0  0  0  0  0  0  0  0
    4.8573    7.3188    4.4678 C   0  0  0  0  0  0  0  0  0  0  0  0
    4.0688    7.6814    2.9809 Cl  0  0  0  0  0  0  0  0  0  0  0  0
    5.0834    5.9892    4.8204 C   0  0  0  0  0  0  0  0  0  0  0  0
    5.9719   -0.0552    4.7634 C   0  0  0  0  0  0  0  0  0  0  0  0
    6.4103   -0.8850    5.8166 C   0  0  0  0  0  0  0  0  0  0  0  0
    6.4351   -2.2743    5.6405 C   0  0  0  0  0  0  0  0  0  0  0  0
    6.0325   -2.8407    4.4361 C   0  0  0  0  0  0  0  0  0  0  0  0
    5.5903   -2.0420    3.3797 C   0  0  0  0  0  0  0  0  0  0  0  0
    5.5689   -0.6464    3.5645 C   0  0  0  0  0  0  0  0  0  0  0  0
    0.5313    0.4903   -0.7101 H   0  0  0  0  0  0  0  0  0  0  0  0
    0.5575    0.7255    1.0385 H   0  0  0  0  0  0  0  0  0  0  0  0
    0.7813   -0.9008    0.3446 H   0  0  0  0  0  0  0  0  0  0  0  0
    2.3174    1.1731   -1.8214 H   0  0  0  0  0  0  0  0  0  0  0  0
    3.8078    0.2829   -1.5136 H   0  0  0  0  0  0  0  0  0  0  0  0
    3.5823    1.9224   -0.8474 H   0  0  0  0  0  0  0  0  0  0  0  0
    2.7736   -0.4440    2.0972 H   0  0  0  0  0  0  0  0  0  0  0  0
    5.1410    0.9849    0.7280 H   0  0  0  0  0  0  0  0  0  0  0  0
    5.2440   -0.7537    0.9649 H   0  0  0  0  0  0  0  0  0  0  0  0
    4.5900    2.6262    1.9074 H   0  0  0  0  0  0  0  0  0  0  0  0
    6.6012    6.5176    7.8321 H   0  0  0  0  0  0  0  0  0  0  0  0
    6.2071    8.8714    7.1733 H   0  0  0  0  0  0  0  0  0  0  0  0
    5.0759    9.3913    5.0291 H   0  0  0  0  0  0  0  0  0  0  0  0
    4.7712    5.1987    4.1421 H   0  0  0  0  0  0  0  0  0  0  0  0
    6.7260   -0.4485    6.7608 H   0  0  0  0  0  0  0  0  0  0  0  0
    6.7736   -2.9115    6.4523 H   0  0  0  0  0  0  0  0  0  0  0  0
    6.0598   -3.9217    4.3140 H   0  0  0  0  0  0  0  0  0  0  0  0
    5.2779   -2.5009    2.4484 H   0  0  0  0  0  0  0  0  0  0  0  0
  1  2  1  0  0  0  0
  1 27  1  0  0  0  0
  1 28  1  0  0  0  0
  1 29  1  0  0  0  0
  2  3  1  0  0  0  0
  2  4  2  0  0  0  0
  3 30  1  0  0  0  0
  3 31  1  0  0  0  0
  3 32  1  0  0  0  0
  4  5  1  0  0  0  0
  4 33  1  0  0  0  0
  5  6  1  0  0  0  0
  5 34  1  0  0  0  0
  5 35  1  0  0  0  0
  6  7  1  0  0  0  0
  6 26  1  0  0  0  0
  7  8  1  0  0  0  0
  7  9  2  0  0  0  0
  8 36  1  0  0  0  0
  9 10  1  0  0  0  0
  9 21  1  0  0  0  0
 10 11  2  3  0  0  0
 11 12  1  0  0  0  0
 12 13  2  0  0  0  0
 12 14  1  0  0  0  0
 14 15  1  0  0  0  0
 14 20  2  0  0  0  0
 15 16  2  0  0  0  0
 15 37  1  0  0  0  0
 16 17  1  0  0  0  0
 16 38  1  0  0  0  0
 17 18  2  0  0  0  0
 17 39  1  0  0  0  0
 18 19  1  0  0  0  0
 18 20  1  0  0  0  0
 20 40  1  0  0  0  0
 21 22  1  0  0  0  0
 21 26  2  0  0  0  0
 22 23  2  0  0  0  0
 22 41  1  0  0  0  0
 23 24  1  0  0  0  0
 23 42  1  0  0  0  0
 24 25  2  0  0  0  0
 24 43  1  0  0  0  0
 25 26  1  0  0  0  0
 25 44  1  0  0  0  0
M  END
>  <Line_Number>
111


> <IC50>
55300

$$$$
