145980462.0
 OpenBabel09302502333D

 47 49  0  0  0  0  0  0  0  0999 V2000
    1.4338    0.6419    1.6978 C   0  0  0  0  0  0  0  0  0  0  0  0
    2.5476    0.2193    0.7782 C   0  0  0  0  0  0  0  0  0  0  0  0
    2.5173    0.7642   -0.6233 C   0  0  0  0  0  0  0  0  0  0  0  0
    3.5238   -0.6019    1.2194 C   0  0  0  0  0  0  0  0  0  0  0  0
    4.6623   -1.1333    0.3893 C   0  0  0  0  0  0  0  0  0  0  0  0
    5.1394   -2.4342    0.8633 N   0  0  0  0  0  0  0  0  0  0  0  0
    6.1622   -2.6493    1.7725 C   0  0  0  0  0  0  0  0  0  0  0  0
    6.8730   -1.6753    2.3452 O   0  0  0  0  0  0  0  0  0  0  0  0
    6.2676   -4.0191    1.9324 C   0  0  0  0  0  0  0  0  0  0  0  0
    7.1926   -4.7361    2.7119 N   0  0  0  0  0  0  0  0  0  0  0  0
    7.5908   -4.0997    3.7093 N   0  0  0  0  0  0  0  0  0  0  0  0
    8.5724   -4.7587    4.4179 C   0  0  0  0  0  0  0  0  0  0  0  0
    9.0730   -5.8493    4.1433 O   0  0  0  0  0  0  0  0  0  0  0  0
    9.0438   -4.0365    5.6425 C   0  0  0  0  0  0  0  0  0  0  0  0
   10.0701   -4.5912    6.4208 C   0  0  0  0  0  0  0  0  0  0  0  0
   10.4960   -3.9536    7.5916 C   0  0  0  0  0  0  0  0  0  0  0  0
    9.9005   -2.7534    8.0075 C   0  0  0  0  0  0  0  0  0  0  0  0
   10.3097   -2.0769    9.2949 C   0  0  0  0  0  0  0  0  0  0  0  0
   11.2736   -2.7488    9.9835 F   0  0  0  0  0  0  0  0  0  0  0  0
   10.7984   -0.8222    9.0935 F   0  0  0  0  0  0  0  0  0  0  0  0
    9.2652   -1.9363   10.1582 F   0  0  0  0  0  0  0  0  0  0  0  0
    8.8919   -2.1877    7.2118 C   0  0  0  0  0  0  0  0  0  0  0  0
    8.4675   -2.8218    6.0397 C   0  0  0  0  0  0  0  0  0  0  0  0
    5.3106   -4.6591    1.1060 C   0  0  0  0  0  0  0  0  0  0  0  0
    4.9648   -6.0057    0.8623 C   0  0  0  0  0  0  0  0  0  0  0  0
    3.9568   -6.3061   -0.0585 C   0  0  0  0  0  0  0  0  0  0  0  0
    3.2994   -5.2876   -0.7404 C   0  0  0  0  0  0  0  0  0  0  0  0
    3.6165   -3.9449   -0.5105 C   0  0  0  0  0  0  0  0  0  0  0  0
    4.6243   -3.6489    0.4249 C   0  0  0  0  0  0  0  0  0  0  0  0
    0.7924    1.4031    1.2411 H   0  0  0  0  0  0  0  0  0  0  0  0
    1.8323    1.0708    2.6236 H   0  0  0  0  0  0  0  0  0  0  0  0
    0.7987   -0.2147    1.9473 H   0  0  0  0  0  0  0  0  0  0  0  0
    1.6967    1.4737   -0.7689 H   0  0  0  0  0  0  0  0  0  0  0  0
    2.3846   -0.0434   -1.3497 H   0  0  0  0  0  0  0  0  0  0  0  0
    3.4467    1.2992   -0.8456 H   0  0  0  0  0  0  0  0  0  0  0  0
    3.4873   -0.9407    2.2556 H   0  0  0  0  0  0  0  0  0  0  0  0
    5.5048   -0.4366    0.4148 H   0  0  0  0  0  0  0  0  0  0  0  0
    4.3844   -1.2533   -0.6625 H   0  0  0  0  0  0  0  0  0  0  0  0
    6.6454   -0.8090    1.9783 H   0  0  0  0  0  0  0  0  0  0  0  0
   10.5390   -5.5285    6.1235 H   0  0  0  0  0  0  0  0  0  0  0  0
   11.2898   -4.4079    8.1844 H   0  0  0  0  0  0  0  0  0  0  0  0
    8.4217   -1.2509    7.5101 H   0  0  0  0  0  0  0  0  0  0  0  0
    7.6773   -2.3577    5.4517 H   0  0  0  0  0  0  0  0  0  0  0  0
    5.4806   -6.8045    1.3891 H   0  0  0  0  0  0  0  0  0  0  0  0
    3.6897   -7.3437   -0.2427 H   0  0  0  0  0  0  0  0  0  0  0  0
    2.5249   -5.5384   -1.4621 H   0  0  0  0  0  0  0  0  0  0  0  0
    3.0896   -3.1642   -1.0496 H   0  0  0  0  0  0  0  0  0  0  0  0
  1  2  1  0  0  0  0
  1 30  1  0  0  0  0
  1 31  1  0  0  0  0
  1 32  1  0  0  0  0
  2  3  1  0  0  0  0
  2  4  2  0  0  0  0
  3 33  1  0  0  0  0
  3 34  1  0  0  0  0
  3 35  1  0  0  0  0
  4  5  1  0  0  0  0
  4 36  1  0  0  0  0
  5  6  1  0  0  0  0
  5 37  1  0  0  0  0
  5 38  1  0  0  0  0
  6  7  1  0  0  0  0
  6 29  1  0  0  0  0
  7  8  1  0  0  0  0
  7  9  2  0  0  0  0
  8 39  1  0  0  0  0
  9 10  1  0  0  0  0
  9 24  1  0  0  0  0
 10 11  2  3  0  0  0
 11 12  1  0  0  0  0
 12 13  2  0  0  0  0
 12 14  1  0  0  0  0
 14 15  1  0  0  0  0
 14 23  2  0  0  0  0
 15 16  2  0  0  0  0
 15 40  1  0  0  0  0
 16 17  1  0  0  0  0
 16 41  1  0  0  0  0
 17 18  1  0  0  0  0
 17 22  2  0  0  0  0
 18 19  1  0  0  0  0
 18 20  1  0  0  0  0
 18 21  1  0  0  0  0
 22 23  1  0  0  0  0
 22 42  1  0  0  0  0
 23 43  1  0  0  0  0
 24 25  1  0  0  0  0
 24 29  2  0  0  0  0
 25 26  2  0  0  0  0
 25 44  1  0  0  0  0
 26 27  1  0  0  0  0
 26 45  1  0  0  0  0
 27 28  2  0  0  0  0
 27 46  1  0  0  0  0
 28 29  1  0  0  0  0
 28 47  1  0  0  0  0
M  END
>  <Line_Number>
112


> <IC50>
64000

$$$$
