145990246.0
 OpenBabel09302502333D

 44 46  0  0  0  0  0  0  0  0999 V2000
    6.8040    0.6451    2.0284 C   0  0  0  0  0  0  0  0  0  0  0  0
    5.6222    0.6841    1.0970 C   0  0  0  0  0  0  0  0  0  0  0  0
    4.2858    1.0240    1.6937 C   0  0  0  0  0  0  0  0  0  0  0  0
    5.7786    0.3797   -0.2070 C   0  0  0  0  0  0  0  0  0  0  0  0
    4.6881    0.3559   -1.2421 C   0  0  0  0  0  0  0  0  0  0  0  0
    5.1795    0.7563   -2.5595 N   0  0  0  0  0  0  0  0  0  0  0  0
    5.2135    2.0446   -3.0617 C   0  0  0  0  0  0  0  0  0  0  0  0
    4.8340    3.1198   -2.3687 O   0  0  0  0  0  0  0  0  0  0  0  0
    5.6832    1.9495   -4.3600 C   0  0  0  0  0  0  0  0  0  0  0  0
    5.8597    2.9833   -5.2987 N   0  0  0  0  0  0  0  0  0  0  0  0
    6.1064    4.0890   -4.7738 N   0  0  0  0  0  0  0  0  0  0  0  0
    6.2109    5.1133   -5.6901 C   0  0  0  0  0  0  0  0  0  0  0  0
    6.0777    5.0277   -6.9111 O   0  0  0  0  0  0  0  0  0  0  0  0
    6.5292    6.4546   -5.0957 C   0  0  0  0  0  0  0  0  0  0  0  0
    6.6643    7.5708   -5.9405 C   0  0  0  0  0  0  0  0  0  0  0  0
    6.9914    8.8232   -5.4111 C   0  0  0  0  0  0  0  0  0  0  0  0
    7.1782    8.9614   -4.0408 C   0  0  0  0  0  0  0  0  0  0  0  0
    7.5028   10.1582   -3.5351 F   0  0  0  0  0  0  0  0  0  0  0  0
    7.0349    7.8738   -3.1867 C   0  0  0  0  0  0  0  0  0  0  0  0
    6.7087    6.6193   -3.7113 C   0  0  0  0  0  0  0  0  0  0  0  0
    5.9431    0.5841   -4.6594 C   0  0  0  0  0  0  0  0  0  0  0  0
    6.4147   -0.1096   -5.7949 C   0  0  0  0  0  0  0  0  0  0  0  0
    6.5656   -1.5006   -5.7481 C   0  0  0  0  0  0  0  0  0  0  0  0
    6.2589   -2.2062   -4.5887 C   0  0  0  0  0  0  0  0  0  0  0  0
    5.7919   -1.5440   -3.4514 C   0  0  0  0  0  0  0  0  0  0  0  0
    5.6348   -0.1471   -3.5094 C   0  0  0  0  0  0  0  0  0  0  0  0
    6.5207    0.8853    3.0581 H   0  0  0  0  0  0  0  0  0  0  0  0
    7.5628    1.3712    1.7191 H   0  0  0  0  0  0  0  0  0  0  0  0
    7.2523   -0.3543    2.0396 H   0  0  0  0  0  0  0  0  0  0  0  0
    4.3485    1.1889    2.7733 H   0  0  0  0  0  0  0  0  0  0  0  0
    3.5756    0.2061    1.5309 H   0  0  0  0  0  0  0  0  0  0  0  0
    3.8867    1.9394    1.2454 H   0  0  0  0  0  0  0  0  0  0  0  0
    6.7743    0.1096   -0.5624 H   0  0  0  0  0  0  0  0  0  0  0  0
    3.8512    1.0153   -0.9925 H   0  0  0  0  0  0  0  0  0  0  0  0
    4.2780   -0.6552   -1.3287 H   0  0  0  0  0  0  0  0  0  0  0  0
    4.6518    2.8849   -1.4456 H   0  0  0  0  0  0  0  0  0  0  0  0
    6.5196    7.4685   -7.0148 H   0  0  0  0  0  0  0  0  0  0  0  0
    7.1053    9.6876   -6.0585 H   0  0  0  0  0  0  0  0  0  0  0  0
    7.1814    8.0072   -2.1192 H   0  0  0  0  0  0  0  0  0  0  0  0
    6.6015    5.7790   -3.0282 H   0  0  0  0  0  0  0  0  0  0  0  0
    6.6593    0.4343   -6.7036 H   0  0  0  0  0  0  0  0  0  0  0  0
    6.9255   -2.0336   -6.6238 H   0  0  0  0  0  0  0  0  0  0  0  0
    6.3819   -3.2867   -4.5659 H   0  0  0  0  0  0  0  0  0  0  0  0
    5.5583   -2.1106   -2.5552 H   0  0  0  0  0  0  0  0  0  0  0  0
  1  2  1  0  0  0  0
  1 27  1  0  0  0  0
  1 28  1  0  0  0  0
  1 29  1  0  0  0  0
  2  3  1  0  0  0  0
  2  4  2  0  0  0  0
  3 30  1  0  0  0  0
  3 31  1  0  0  0  0
  3 32  1  0  0  0  0
  4  5  1  0  0  0  0
  4 33  1  0  0  0  0
  5  6  1  0  0  0  0
  5 34  1  0  0  0  0
  5 35  1  0  0  0  0
  6  7  1  0  0  0  0
  6 26  1  0  0  0  0
  7  8  1  0  0  0  0
  7  9  2  0  0  0  0
  8 36  1  0  0  0  0
  9 10  1  0  0  0  0
  9 21  1  0  0  0  0
 10 11  2  3  0  0  0
 11 12  1  0  0  0  0
 12 13  2  0  0  0  0
 12 14  1  0  0  0  0
 14 15  1  0  0  0  0
 14 20  2  0  0  0  0
 15 16  2  0  0  0  0
 15 37  1  0  0  0  0
 16 17  1  0  0  0  0
 16 38  1  0  0  0  0
 17 18  1  0  0  0  0
 17 19  2  0  0  0  0
 19 20  1  0  0  0  0
 19 39  1  0  0  0  0
 20 40  1  0  0  0  0
 21 22  1  0  0  0  0
 21 26  2  0  0  0  0
 22 23  2  0  0  0  0
 22 41  1  0  0  0  0
 23 24  1  0  0  0  0
 23 42  1  0  0  0  0
 24 25  2  0  0  0  0
 24 43  1  0  0  0  0
 25 26  1  0  0  0  0
 25 44  1  0  0  0  0
M  END
>  <Line_Number>
113


> <IC50>
177000

$$$$
