145986522.0
 OpenBabel09302502333D

 47 49  0  0  0  0  0  0  0  0999 V2000
    1.1384    1.0496   -0.2271 C   0  0  0  0  0  0  0  0  0  0  0  0
    2.6326    0.8682   -0.2010 C   0  0  0  0  0  0  0  0  0  0  0  0
    3.3941    1.5881    0.8771 C   0  0  0  0  0  0  0  0  0  0  0  0
    3.2369    0.0565   -1.0915 C   0  0  0  0  0  0  0  0  0  0  0  0
    4.7152   -0.2338   -1.1473 C   0  0  0  0  0  0  0  0  0  0  0  0
    5.1680   -0.5147   -2.5089 N   0  0  0  0  0  0  0  0  0  0  0  0
    5.6348    0.4085   -3.4287 C   0  0  0  0  0  0  0  0  0  0  0  0
    5.7168    1.7189   -3.1864 O   0  0  0  0  0  0  0  0  0  0  0  0
    5.9502   -0.3020   -4.5744 C   0  0  0  0  0  0  0  0  0  0  0  0
    6.3924    0.1911   -5.8156 N   0  0  0  0  0  0  0  0  0  0  0  0
    7.0782    1.2281   -5.7252 N   0  0  0  0  0  0  0  0  0  0  0  0
    7.3626    1.7768   -6.9598 C   0  0  0  0  0  0  0  0  0  0  0  0
    7.5197    1.1632   -8.0118 O   0  0  0  0  0  0  0  0  0  0  0  0
    7.5034    3.2709   -6.9573 C   0  0  0  0  0  0  0  0  0  0  0  0
    7.7498    3.9478   -8.1605 C   0  0  0  0  0  0  0  0  0  0  0  0
    7.8827    5.3383   -8.1723 C   0  0  0  0  0  0  0  0  0  0  0  0
    7.7920    6.0614   -6.9827 C   0  0  0  0  0  0  0  0  0  0  0  0
    7.5620    5.4047   -5.7651 C   0  0  0  0  0  0  0  0  0  0  0  0
    7.5130    6.1687   -4.4642 C   0  0  0  0  0  0  0  0  0  0  0  0
    7.7449    7.5035   -4.6093 F   0  0  0  0  0  0  0  0  0  0  0  0
    6.3104    6.0644   -3.8367 F   0  0  0  0  0  0  0  0  0  0  0  0
    8.4418    5.7270   -3.5706 F   0  0  0  0  0  0  0  0  0  0  0  0
    7.3996    4.0086   -5.7663 C   0  0  0  0  0  0  0  0  0  0  0  0
    5.6694   -1.6768   -4.3583 C   0  0  0  0  0  0  0  0  0  0  0  0
    5.7692   -2.8403   -5.1499 C   0  0  0  0  0  0  0  0  0  0  0  0
    5.4003   -4.0784   -4.6115 C   0  0  0  0  0  0  0  0  0  0  0  0
    4.9341   -4.1706   -3.3045 C   0  0  0  0  0  0  0  0  0  0  0  0
    4.8181   -3.0337   -2.5044 C   0  0  0  0  0  0  0  0  0  0  0  0
    5.1915   -1.7927   -3.0514 C   0  0  0  0  0  0  0  0  0  0  0  0
    0.7961    1.7307    0.5591 H   0  0  0  0  0  0  0  0  0  0  0  0
    0.6307    0.0917   -0.0697 H   0  0  0  0  0  0  0  0  0  0  0  0
    0.8162    1.4690   -1.1855 H   0  0  0  0  0  0  0  0  0  0  0  0
    2.7357    2.1817    1.5177 H   0  0  0  0  0  0  0  0  0  0  0  0
    4.1250    2.2729    0.4366 H   0  0  0  0  0  0  0  0  0  0  0  0
    3.9151    0.8703    1.5191 H   0  0  0  0  0  0  0  0  0  0  0  0
    2.6213   -0.4607   -1.8272 H   0  0  0  0  0  0  0  0  0  0  0  0
    4.9413   -1.1107   -0.5326 H   0  0  0  0  0  0  0  0  0  0  0  0
    5.3223    0.5887   -0.7633 H   0  0  0  0  0  0  0  0  0  0  0  0
    5.2797    1.9384   -2.3479 H   0  0  0  0  0  0  0  0  0  0  0  0
    7.8389    3.3963   -9.0953 H   0  0  0  0  0  0  0  0  0  0  0  0
    8.0669    5.8600   -9.1105 H   0  0  0  0  0  0  0  0  0  0  0  0
    7.9103    7.1442   -7.0073 H   0  0  0  0  0  0  0  0  0  0  0  0
    7.1998    3.5023   -4.8213 H   0  0  0  0  0  0  0  0  0  0  0  0
    6.1327   -2.7751   -6.1720 H   0  0  0  0  0  0  0  0  0  0  0  0
    5.4779   -4.9736   -5.2223 H   0  0  0  0  0  0  0  0  0  0  0  0
    4.6522   -5.1405   -2.9004 H   0  0  0  0  0  0  0  0  0  0  0  0
    4.4433   -3.1231   -1.4890 H   0  0  0  0  0  0  0  0  0  0  0  0
  1  2  1  0  0  0  0
  1 30  1  0  0  0  0
  1 31  1  0  0  0  0
  1 32  1  0  0  0  0
  2  3  1  0  0  0  0
  2  4  2  0  0  0  0
  3 33  1  0  0  0  0
  3 34  1  0  0  0  0
  3 35  1  0  0  0  0
  4  5  1  0  0  0  0
  4 36  1  0  0  0  0
  5  6  1  0  0  0  0
  5 37  1  0  0  0  0
  5 38  1  0  0  0  0
  6  7  1  0  0  0  0
  6 29  1  0  0  0  0
  7  8  1  0  0  0  0
  7  9  2  0  0  0  0
  8 39  1  0  0  0  0
  9 10  1  0  0  0  0
  9 24  1  0  0  0  0
 10 11  2  3  0  0  0
 11 12  1  0  0  0  0
 12 13  2  0  0  0  0
 12 14  1  0  0  0  0
 14 15  1  0  0  0  0
 14 23  2  0  0  0  0
 15 16  2  0  0  0  0
 15 40  1  0  0  0  0
 16 17  1  0  0  0  0
 16 41  1  0  0  0  0
 17 18  2  0  0  0  0
 17 42  1  0  0  0  0
 18 19  1  0  0  0  0
 18 23  1  0  0  0  0
 19 20  1  0  0  0  0
 19 21  1  0  0  0  0
 19 22  1  0  0  0  0
 23 43  1  0  0  0  0
 24 25  1  0  0  0  0
 24 29  2  0  0  0  0
 25 26  2  0  0  0  0
 25 44  1  0  0  0  0
 26 27  1  0  0  0  0
 26 45  1  0  0  0  0
 27 28  2  0  0  0  0
 27 46  1  0  0  0  0
 28 29  1  0  0  0  0
 28 47  1  0  0  0  0
M  END
>  <Line_Number>
114


> <IC50>
86900

$$$$
