145993469.0
 OpenBabel09302502333D

 52 54  0  0  0  0  0  0  0  0999 V2000
    3.2311   -1.6251  -10.6329 C   0  0  0  0  0  0  0  0  0  0  0  0
    4.1802   -2.6421  -10.3347 O   0  0  0  0  0  0  0  0  0  0  0  0
    4.2767   -3.0402   -9.0290 C   0  0  0  0  0  0  0  0  0  0  0  0
    3.2490   -2.8257   -8.0978 C   0  0  0  0  0  0  0  0  0  0  0  0
    3.3481   -3.3168   -6.7999 C   0  0  0  0  0  0  0  0  0  0  0  0
    4.4715   -4.0465   -6.4116 C   0  0  0  0  0  0  0  0  0  0  0  0
    4.5017   -4.5922   -5.0348 C   0  0  0  0  0  0  0  0  0  0  0  0
    3.7472   -4.1001   -4.1950 O   0  0  0  0  0  0  0  0  0  0  0  0
    5.3313   -5.6789   -4.8455 N   0  0  0  0  0  0  0  0  0  0  0  0
    4.9944   -6.2691   -3.8062 N   0  0  0  0  0  0  0  0  0  0  0  0
    5.5610   -7.5208   -3.5838 C   0  0  0  0  0  0  0  0  0  0  0  0
    5.2741   -8.1923   -2.4228 C   0  0  0  0  0  0  0  0  0  0  0  0
    4.4557   -7.8903   -1.4190 O   0  0  0  0  0  0  0  0  0  0  0  0
    6.0213   -9.3442   -2.4274 N   0  0  0  0  0  0  0  0  0  0  0  0
    6.2239  -10.1919   -1.2573 C   0  0  0  0  0  0  0  0  0  0  0  0
    5.3635  -11.4217   -1.2280 C   0  0  0  0  0  0  0  0  0  0  0  0
    5.4859  -12.3947   -0.2971 C   0  0  0  0  0  0  0  0  0  0  0  0
    6.4966  -12.3576    0.8180 C   0  0  0  0  0  0  0  0  0  0  0  0
    4.5864  -13.6043   -0.2845 C   0  0  0  0  0  0  0  0  0  0  0  0
    6.6330   -9.5083   -3.6595 C   0  0  0  0  0  0  0  0  0  0  0  0
    7.4068  -10.5617   -4.1702 C   0  0  0  0  0  0  0  0  0  0  0  0
    7.8502  -10.4738   -5.4921 C   0  0  0  0  0  0  0  0  0  0  0  0
    7.5503   -9.3662   -6.2772 C   0  0  0  0  0  0  0  0  0  0  0  0
    6.8169   -8.2983   -5.7494 C   0  0  0  0  0  0  0  0  0  0  0  0
    6.3398   -8.3626   -4.4210 C   0  0  0  0  0  0  0  0  0  0  0  0
    5.5046   -4.2724   -7.3266 C   0  0  0  0  0  0  0  0  0  0  0  0
    5.4217   -3.7616   -8.6320 C   0  0  0  0  0  0  0  0  0  0  0  0
    6.5070   -4.0769   -9.4092 O   0  0  0  0  0  0  0  0  0  0  0  0
    6.8540   -3.1495  -10.4293 C   0  0  0  0  0  0  0  0  0  0  0  0
    3.3606   -1.3405  -11.6811 H   0  0  0  0  0  0  0  0  0  0  0  0
    3.4065   -0.7358  -10.0179 H   0  0  0  0  0  0  0  0  0  0  0  0
    2.2048   -1.9903  -10.5178 H   0  0  0  0  0  0  0  0  0  0  0  0
    2.3310   -2.3107   -8.3654 H   0  0  0  0  0  0  0  0  0  0  0  0
    2.5284   -3.1502   -6.1023 H   0  0  0  0  0  0  0  0  0  0  0  0
    3.9583   -7.1008   -1.7131 H   0  0  0  0  0  0  0  0  0  0  0  0
    6.0249   -9.5747   -0.3734 H   0  0  0  0  0  0  0  0  0  0  0  0
    7.2865  -10.4550   -1.2522 H   0  0  0  0  0  0  0  0  0  0  0  0
    4.5900  -11.5025   -1.9924 H   0  0  0  0  0  0  0  0  0  0  0  0
    7.1271  -11.4642    0.8004 H   0  0  0  0  0  0  0  0  0  0  0  0
    7.1596  -13.2253    0.7521 H   0  0  0  0  0  0  0  0  0  0  0  0
    5.9902  -12.3738    1.7883 H   0  0  0  0  0  0  0  0  0  0  0  0
    3.8582  -13.5898   -1.0991 H   0  0  0  0  0  0  0  0  0  0  0  0
    4.0367  -13.6533    0.6607 H   0  0  0  0  0  0  0  0  0  0  0  0
    5.1875  -14.5140   -0.3829 H   0  0  0  0  0  0  0  0  0  0  0  0
    7.6361  -11.4351   -3.5698 H   0  0  0  0  0  0  0  0  0  0  0  0
    8.4291  -11.2918   -5.9155 H   0  0  0  0  0  0  0  0  0  0  0  0
    7.8815   -9.3302   -7.3124 H   0  0  0  0  0  0  0  0  0  0  0  0
    6.5925   -7.4430   -6.3794 H   0  0  0  0  0  0  0  0  0  0  0  0
    6.3926   -4.8309   -7.0424 H   0  0  0  0  0  0  0  0  0  0  0  0
    7.8965   -3.3394  -10.7052 H   0  0  0  0  0  0  0  0  0  0  0  0
    6.7869   -2.1124  -10.0837 H   0  0  0  0  0  0  0  0  0  0  0  0
    6.2508   -3.3151  -11.3266 H   0  0  0  0  0  0  0  0  0  0  0  0
  1  2  1  0  0  0  0
  1 30  1  0  0  0  0
  1 31  1  0  0  0  0
  1 32  1  0  0  0  0
  2  3  1  0  0  0  0
  3  4  1  0  0  0  0
  3 27  2  0  0  0  0
  4  5  2  0  0  0  0
  4 33  1  0  0  0  0
  5  6  1  0  0  0  0
  5 34  1  0  0  0  0
  6  7  1  0  0  0  0
  6 26  2  0  0  0  0
  7  8  2  0  0  0  0
  7  9  1  0  0  0  0
  9 10  2  3  0  0  0
 10 11  1  0  0  0  0
 11 12  2  0  0  0  0
 11 25  1  0  0  0  0
 12 13  1  0  0  0  0
 12 14  1  0  0  0  0
 13 35  1  0  0  0  0
 14 15  1  0  0  0  0
 14 20  1  0  0  0  0
 15 16  1  0  0  0  0
 15 36  1  0  0  0  0
 15 37  1  0  0  0  0
 16 17  2  0  0  0  0
 16 38  1  0  0  0  0
 17 18  1  0  0  0  0
 17 19  1  0  0  0  0
 18 39  1  0  0  0  0
 18 40  1  0  0  0  0
 18 41  1  0  0  0  0
 19 42  1  0  0  0  0
 19 43  1  0  0  0  0
 19 44  1  0  0  0  0
 20 21  1  0  0  0  0
 20 25  2  0  0  0  0
 21 22  2  0  0  0  0
 21 45  1  0  0  0  0
 22 23  1  0  0  0  0
 22 46  1  0  0  0  0
 23 24  2  0  0  0  0
 23 47  1  0  0  0  0
 24 25  1  0  0  0  0
 24 48  1  0  0  0  0
 26 27  1  0  0  0  0
 26 49  1  0  0  0  0
 27 28  1  0  0  0  0
 28 29  1  0  0  0  0
 29 50  1  0  0  0  0
 29 51  1  0  0  0  0
 29 52  1  0  0  0  0
M  END
>  <Line_Number>
115


> <IC50>
595

$$$$
