145987122.0
 OpenBabel09302502333D

 56 58  0  0  0  0  0  0  0  0999 V2000
    4.6564   -1.2059    2.7608 C   0  0  0  0  0  0  0  0  0  0  0  0
    4.1780   -0.3973    1.5824 C   0  0  0  0  0  0  0  0  0  0  0  0
    2.8649   -0.8025    0.9714 C   0  0  0  0  0  0  0  0  0  0  0  0
    4.9510    0.5884    1.0833 C   0  0  0  0  0  0  0  0  0  0  0  0
    4.6840    1.3664   -0.1743 C   0  0  0  0  0  0  0  0  0  0  0  0
    5.1763    2.7445   -0.1131 N   0  0  0  0  0  0  0  0  0  0  0  0
    4.4087    3.8566    0.1718 C   0  0  0  0  0  0  0  0  0  0  0  0
    3.1575    3.7829    0.6224 O   0  0  0  0  0  0  0  0  0  0  0  0
    5.1835    4.9597   -0.1425 C   0  0  0  0  0  0  0  0  0  0  0  0
    4.8261    6.3192   -0.0909 N   0  0  0  0  0  0  0  0  0  0  0  0
    3.6280    6.5027   -0.3799 N   0  0  0  0  0  0  0  0  0  0  0  0
    3.2677    7.8338   -0.4329 C   0  0  0  0  0  0  0  0  0  0  0  0
    4.0148    8.8024   -0.3299 O   0  0  0  0  0  0  0  0  0  0  0  0
    1.8036    8.0561   -0.6687 C   0  0  0  0  0  0  0  0  0  0  0  0
    1.3264    9.3559   -0.8444 C   0  0  0  0  0  0  0  0  0  0  0  0
   -0.0439    9.5911   -1.0249 C   0  0  0  0  0  0  0  0  0  0  0  0
   -0.9818    8.5419   -1.0242 C   0  0  0  0  0  0  0  0  0  0  0  0
   -2.4994    8.7924   -1.1287 C   0  0  0  0  0  0  0  0  0  0  0  0
   -2.8549   10.2942   -1.2119 C   0  0  0  0  0  0  0  0  0  0  0  0
   -3.0832    8.1044   -2.3805 C   0  0  0  0  0  0  0  0  0  0  0  0
   -3.2191    8.2273    0.1173 C   0  0  0  0  0  0  0  0  0  0  0  0
   -0.4787    7.2353   -0.8880 C   0  0  0  0  0  0  0  0  0  0  0  0
    0.8920    6.9936   -0.7114 C   0  0  0  0  0  0  0  0  0  0  0  0
    6.4811    4.5202   -0.5163 C   0  0  0  0  0  0  0  0  0  0  0  0
    7.6722    5.1759   -0.8910 C   0  0  0  0  0  0  0  0  0  0  0  0
    8.8025    4.4198   -1.2195 C   0  0  0  0  0  0  0  0  0  0  0  0
    8.7559    3.0305   -1.1901 C   0  0  0  0  0  0  0  0  0  0  0  0
    7.5843    2.3573   -0.8308 C   0  0  0  0  0  0  0  0  0  0  0  0
    6.4554    3.1233   -0.4904 C   0  0  0  0  0  0  0  0  0  0  0  0
    3.8693   -1.8525    3.1611 H   0  0  0  0  0  0  0  0  0  0  0  0
    4.9930   -0.5571    3.5752 H   0  0  0  0  0  0  0  0  0  0  0  0
    5.4877   -1.8517    2.4559 H   0  0  0  0  0  0  0  0  0  0  0  0
    2.3648   -1.5812    1.5559 H   0  0  0  0  0  0  0  0  0  0  0  0
    3.0122   -1.1933   -0.0406 H   0  0  0  0  0  0  0  0  0  0  0  0
    2.1811    0.0520    0.9310 H   0  0  0  0  0  0  0  0  0  0  0  0
    5.8967    0.8079    1.5814 H   0  0  0  0  0  0  0  0  0  0  0  0
    3.6202    1.4085   -0.4305 H   0  0  0  0  0  0  0  0  0  0  0  0
    5.1934    0.8811   -1.0142 H   0  0  0  0  0  0  0  0  0  0  0  0
    3.0347    2.9326    1.0821 H   0  0  0  0  0  0  0  0  0  0  0  0
    2.0118   10.2012   -0.8329 H   0  0  0  0  0  0  0  0  0  0  0  0
   -0.3494   10.6265   -1.1508 H   0  0  0  0  0  0  0  0  0  0  0  0
   -2.4315   10.7564   -2.1115 H   0  0  0  0  0  0  0  0  0  0  0  0
   -2.4802   10.8416   -0.3383 H   0  0  0  0  0  0  0  0  0  0  0  0
   -3.9389   10.4494   -1.2472 H   0  0  0  0  0  0  0  0  0  0  0  0
   -2.6277    8.4919   -3.2985 H   0  0  0  0  0  0  0  0  0  0  0  0
   -4.1652    8.2730   -2.4496 H   0  0  0  0  0  0  0  0  0  0  0  0
   -2.9301    7.0196   -2.3662 H   0  0  0  0  0  0  0  0  0  0  0  0
   -2.8351    8.6801    1.0385 H   0  0  0  0  0  0  0  0  0  0  0  0
   -3.1030    7.1416    0.2072 H   0  0  0  0  0  0  0  0  0  0  0  0
   -4.2965    8.4293    0.0726 H   0  0  0  0  0  0  0  0  0  0  0  0
   -1.1503    6.3786   -0.9013 H   0  0  0  0  0  0  0  0  0  0  0  0
    1.2274    5.9646   -0.5923 H   0  0  0  0  0  0  0  0  0  0  0  0
    7.7107    6.2616   -0.9217 H   0  0  0  0  0  0  0  0  0  0  0  0
    9.7222    4.9254   -1.5019 H   0  0  0  0  0  0  0  0  0  0  0  0
    9.6424    2.4570   -1.4512 H   0  0  0  0  0  0  0  0  0  0  0  0
    7.5633    1.2717   -0.8159 H   0  0  0  0  0  0  0  0  0  0  0  0
  1  2  1  0  0  0  0
  1 30  1  0  0  0  0
  1 31  1  0  0  0  0
  1 32  1  0  0  0  0
  2  3  1  0  0  0  0
  2  4  2  0  0  0  0
  3 33  1  0  0  0  0
  3 34  1  0  0  0  0
  3 35  1  0  0  0  0
  4  5  1  0  0  0  0
  4 36  1  0  0  0  0
  5  6  1  0  0  0  0
  5 37  1  0  0  0  0
  5 38  1  0  0  0  0
  6  7  1  0  0  0  0
  6 29  1  0  0  0  0
  7  8  1  0  0  0  0
  7  9  2  0  0  0  0
  8 39  1  0  0  0  0
  9 10  1  0  0  0  0
  9 24  1  0  0  0  0
 10 11  2  3  0  0  0
 11 12  1  0  0  0  0
 12 13  2  0  0  0  0
 12 14  1  0  0  0  0
 14 15  1  0  0  0  0
 14 23  2  0  0  0  0
 15 16  2  0  0  0  0
 15 40  1  0  0  0  0
 16 17  1  0  0  0  0
 16 41  1  0  0  0  0
 17 18  1  0  0  0  0
 17 22  2  0  0  0  0
 18 19  1  0  0  0  0
 18 20  1  0  0  0  0
 18 21  1  0  0  0  0
 19 42  1  0  0  0  0
 19 43  1  0  0  0  0
 19 44  1  0  0  0  0
 20 45  1  0  0  0  0
 20 46  1  0  0  0  0
 20 47  1  0  0  0  0
 21 48  1  0  0  0  0
 21 49  1  0  0  0  0
 21 50  1  0  0  0  0
 22 23  1  0  0  0  0
 22 51  1  0  0  0  0
 23 52  1  0  0  0  0
 24 25  1  0  0  0  0
 24 29  2  0  0  0  0
 25 26  2  0  0  0  0
 25 53  1  0  0  0  0
 26 27  1  0  0  0  0
 26 54  1  0  0  0  0
 27 28  2  0  0  0  0
 27 55  1  0  0  0  0
 28 29  1  0  0  0  0
 28 56  1  0  0  0  0
M  END
>  <Line_Number>
116


> <IC50>
25150

$$$$
