145993563.0
 OpenBabel09302502333D

 44 46  0  0  0  0  0  0  0  0999 V2000
    7.0994    0.2554    1.9645 C   0  0  0  0  0  0  0  0  0  0  0  0
    5.9379    0.3629    1.0132 C   0  0  0  0  0  0  0  0  0  0  0  0
    4.8887    1.3937    1.3211 C   0  0  0  0  0  0  0  0  0  0  0  0
    5.8502   -0.4727   -0.0418 C   0  0  0  0  0  0  0  0  0  0  0  0
    4.7470   -0.4869   -1.0633 C   0  0  0  0  0  0  0  0  0  0  0  0
    5.2195   -0.9455   -2.3691 N   0  0  0  0  0  0  0  0  0  0  0  0
    5.7157   -0.1496   -3.3859 C   0  0  0  0  0  0  0  0  0  0  0  0
    5.8794    1.1707   -3.2835 O   0  0  0  0  0  0  0  0  0  0  0  0
    5.9626   -0.9891   -4.4584 C   0  0  0  0  0  0  0  0  0  0  0  0
    6.4211   -0.6432   -5.7424 N   0  0  0  0  0  0  0  0  0  0  0  0
    7.1598    0.3614   -5.7440 N   0  0  0  0  0  0  0  0  0  0  0  0
    7.5261    0.7680   -7.0075 C   0  0  0  0  0  0  0  0  0  0  0  0
    7.2040    0.2440   -8.0725 O   0  0  0  0  0  0  0  0  0  0  0  0
    8.4106    1.9768   -7.0368 C   0  0  0  0  0  0  0  0  0  0  0  0
    8.8019    2.5178   -8.2720 C   0  0  0  0  0  0  0  0  0  0  0  0
    9.6478    3.6315   -8.3206 C   0  0  0  0  0  0  0  0  0  0  0  0
   10.1061    4.2057   -7.1359 C   0  0  0  0  0  0  0  0  0  0  0  0
   11.1639    5.5611   -7.1939 Cl  0  0  0  0  0  0  0  0  0  0  0  0
    9.7168    3.6857   -5.9035 C   0  0  0  0  0  0  0  0  0  0  0  0
    8.8690    2.5748   -5.8523 C   0  0  0  0  0  0  0  0  0  0  0  0
    5.6216   -2.3190   -4.0957 C   0  0  0  0  0  0  0  0  0  0  0  0
    5.6508   -3.5623   -4.7607 C   0  0  0  0  0  0  0  0  0  0  0  0
    5.2289   -4.7175   -4.0903 C   0  0  0  0  0  0  0  0  0  0  0  0
    4.7859   -4.6484   -2.7754 C   0  0  0  0  0  0  0  0  0  0  0  0
    4.7498   -3.4294   -2.0929 C   0  0  0  0  0  0  0  0  0  0  0  0
    5.1679   -2.2723   -2.7745 C   0  0  0  0  0  0  0  0  0  0  0  0
    7.0215    0.9721    2.7882 H   0  0  0  0  0  0  0  0  0  0  0  0
    8.0413    0.4559    1.4436 H   0  0  0  0  0  0  0  0  0  0  0  0
    7.1446   -0.7455    2.4074 H   0  0  0  0  0  0  0  0  0  0  0  0
    5.1163    1.9485    2.2379 H   0  0  0  0  0  0  0  0  0  0  0  0
    3.9139    0.9172    1.4647 H   0  0  0  0  0  0  0  0  0  0  0  0
    4.8152    2.1233    0.5090 H   0  0  0  0  0  0  0  0  0  0  0  0
    6.6328   -1.2196   -0.1780 H   0  0  0  0  0  0  0  0  0  0  0  0
    4.2934    0.4983   -1.2076 H   0  0  0  0  0  0  0  0  0  0  0  0
    3.9465   -1.1606   -0.7421 H   0  0  0  0  0  0  0  0  0  0  0  0
    5.6929    1.4714   -2.3803 H   0  0  0  0  0  0  0  0  0  0  0  0
    8.4510    2.0743   -9.2028 H   0  0  0  0  0  0  0  0  0  0  0  0
    9.9470    4.0400   -9.2825 H   0  0  0  0  0  0  0  0  0  0  0  0
   10.0709    4.1349   -4.9789 H   0  0  0  0  0  0  0  0  0  0  0  0
    8.5769    2.1855   -4.8784 H   0  0  0  0  0  0  0  0  0  0  0  0
    5.9981   -3.6235   -5.7873 H   0  0  0  0  0  0  0  0  0  0  0  0
    5.2486   -5.6739   -4.6060 H   0  0  0  0  0  0  0  0  0  0  0  0
    4.4593   -5.5538   -2.2680 H   0  0  0  0  0  0  0  0  0  0  0  0
    4.4016   -3.3948   -1.0654 H   0  0  0  0  0  0  0  0  0  0  0  0
  1  2  1  0  0  0  0
  1 27  1  0  0  0  0
  1 28  1  0  0  0  0
  1 29  1  0  0  0  0
  2  3  1  0  0  0  0
  2  4  2  0  0  0  0
  3 30  1  0  0  0  0
  3 31  1  0  0  0  0
  3 32  1  0  0  0  0
  4  5  1  0  0  0  0
  4 33  1  0  0  0  0
  5  6  1  0  0  0  0
  5 34  1  0  0  0  0
  5 35  1  0  0  0  0
  6  7  1  0  0  0  0
  6 26  1  0  0  0  0
  7  8  1  0  0  0  0
  7  9  2  0  0  0  0
  8 36  1  0  0  0  0
  9 10  1  0  0  0  0
  9 21  1  0  0  0  0
 10 11  2  3  0  0  0
 11 12  1  0  0  0  0
 12 13  2  0  0  0  0
 12 14  1  0  0  0  0
 14 15  1  0  0  0  0
 14 20  2  0  0  0  0
 15 16  2  0  0  0  0
 15 37  1  0  0  0  0
 16 17  1  0  0  0  0
 16 38  1  0  0  0  0
 17 18  1  0  0  0  0
 17 19  2  0  0  0  0
 19 20  1  0  0  0  0
 19 39  1  0  0  0  0
 20 40  1  0  0  0  0
 21 22  1  0  0  0  0
 21 26  2  0  0  0  0
 22 23  2  0  0  0  0
 22 41  1  0  0  0  0
 23 24  1  0  0  0  0
 23 42  1  0  0  0  0
 24 25  2  0  0  0  0
 24 43  1  0  0  0  0
 25 26  1  0  0  0  0
 25 44  1  0  0  0  0
M  END
>  <Line_Number>
117


> <IC50>
164000

$$$$
