145988267.0
 OpenBabel09302502333D

 44 46  0  0  0  0  0  0  0  0999 V2000
    6.7197    0.9031    2.0429 C   0  0  0  0  0  0  0  0  0  0  0  0
    5.7867    0.5648    0.9114 C   0  0  0  0  0  0  0  0  0  0  0  0
    5.0327    1.7011    0.2780 C   0  0  0  0  0  0  0  0  0  0  0  0
    5.6335   -0.7163    0.5202 C   0  0  0  0  0  0  0  0  0  0  0  0
    4.7579   -1.1862   -0.6084 C   0  0  0  0  0  0  0  0  0  0  0  0
    5.2636   -2.4135   -1.2232 N   0  0  0  0  0  0  0  0  0  0  0  0
    6.1176   -2.4940   -2.3077 C   0  0  0  0  0  0  0  0  0  0  0  0
    6.6761   -1.4315   -2.8920 O   0  0  0  0  0  0  0  0  0  0  0  0
    6.2171   -3.8351   -2.6339 C   0  0  0  0  0  0  0  0  0  0  0  0
    6.9117   -4.4178   -3.7104 N   0  0  0  0  0  0  0  0  0  0  0  0
    7.9366   -3.7821   -4.0279 N   0  0  0  0  0  0  0  0  0  0  0  0
    8.5603   -4.2713   -5.1534 C   0  0  0  0  0  0  0  0  0  0  0  0
    8.2200   -5.2466   -5.8234 O   0  0  0  0  0  0  0  0  0  0  0  0
    9.7827   -3.5033   -5.5637 C   0  0  0  0  0  0  0  0  0  0  0  0
   10.4850   -3.8724   -6.7201 C   0  0  0  0  0  0  0  0  0  0  0  0
   11.6449   -3.1848   -7.0894 C   0  0  0  0  0  0  0  0  0  0  0  0
   12.1088   -2.1264   -6.3082 C   0  0  0  0  0  0  0  0  0  0  0  0
   11.4081   -1.7409   -5.1667 C   0  0  0  0  0  0  0  0  0  0  0  0
   10.2474   -2.4227   -4.7963 C   0  0  0  0  0  0  0  0  0  0  0  0
    5.4324   -4.5920   -1.7244 C   0  0  0  0  0  0  0  0  0  0  0  0
    5.1461   -5.9652   -1.5725 C   0  0  0  0  0  0  0  0  0  0  0  0
    4.3041   -6.3864   -0.5370 C   0  0  0  0  0  0  0  0  0  0  0  0
    3.7553   -5.4650    0.3475 C   0  0  0  0  0  0  0  0  0  0  0  0
    4.0233   -4.1001    0.2197 C   0  0  0  0  0  0  0  0  0  0  0  0
    4.8593   -3.6825   -0.8314 C   0  0  0  0  0  0  0  0  0  0  0  0
    6.6934    1.9692    2.2901 H   0  0  0  0  0  0  0  0  0  0  0  0
    7.7511    0.6555    1.7709 H   0  0  0  0  0  0  0  0  0  0  0  0
    6.4493    0.3518    2.9499 H   0  0  0  0  0  0  0  0  0  0  0  0
    5.2502    2.6574    0.7629 H   0  0  0  0  0  0  0  0  0  0  0  0
    3.9528    1.5357    0.3598 H   0  0  0  0  0  0  0  0  0  0  0  0
    5.3012    1.8004   -0.7780 H   0  0  0  0  0  0  0  0  0  0  0  0
    6.1813   -1.4935    1.0543 H   0  0  0  0  0  0  0  0  0  0  0  0
    4.6675   -0.4398   -1.4038 H   0  0  0  0  0  0  0  0  0  0  0  0
    3.7453   -1.3872   -0.2444 H   0  0  0  0  0  0  0  0  0  0  0  0
    6.5008   -0.6263   -2.3800 H   0  0  0  0  0  0  0  0  0  0  0  0
   10.1344   -4.6976   -7.3370 H   0  0  0  0  0  0  0  0  0  0  0  0
   12.1886   -3.4778   -7.9840 H   0  0  0  0  0  0  0  0  0  0  0  0
   13.0177   -1.5999   -6.5894 H   0  0  0  0  0  0  0  0  0  0  0  0
   11.7654   -0.9129   -4.5611 H   0  0  0  0  0  0  0  0  0  0  0  0
    9.7174   -2.1023   -3.9019 H   0  0  0  0  0  0  0  0  0  0  0  0
    5.5752   -6.6903   -2.2581 H   0  0  0  0  0  0  0  0  0  0  0  0
    4.0801   -7.4454   -0.4252 H   0  0  0  0  0  0  0  0  0  0  0  0
    3.1047   -5.8087    1.1489 H   0  0  0  0  0  0  0  0  0  0  0  0
    3.5865   -3.3946    0.9181 H   0  0  0  0  0  0  0  0  0  0  0  0
  1  2  1  0  0  0  0
  1 26  1  0  0  0  0
  1 27  1  0  0  0  0
  1 28  1  0  0  0  0
  2  3  1  0  0  0  0
  2  4  2  0  0  0  0
  3 29  1  0  0  0  0
  3 30  1  0  0  0  0
  3 31  1  0  0  0  0
  4  5  1  0  0  0  0
  4 32  1  0  0  0  0
  5  6  1  0  0  0  0
  5 33  1  0  0  0  0
  5 34  1  0  0  0  0
  6  7  1  0  0  0  0
  6 25  1  0  0  0  0
  7  8  1  0  0  0  0
  7  9  2  0  0  0  0
  8 35  1  0  0  0  0
  9 10  1  0  0  0  0
  9 20  1  0  0  0  0
 10 11  2  3  0  0  0
 11 12  1  0  0  0  0
 12 13  2  0  0  0  0
 12 14  1  0  0  0  0
 14 15  1  0  0  0  0
 14 19  2  0  0  0  0
 15 16  2  0  0  0  0
 15 36  1  0  0  0  0
 16 17  1  0  0  0  0
 16 37  1  0  0  0  0
 17 18  2  0  0  0  0
 17 38  1  0  0  0  0
 18 19  1  0  0  0  0
 18 39  1  0  0  0  0
 19 40  1  0  0  0  0
 20 21  1  0  0  0  0
 20 25  2  0  0  0  0
 21 22  2  0  0  0  0
 21 41  1  0  0  0  0
 22 23  1  0  0  0  0
 22 42  1  0  0  0  0
 23 24  2  0  0  0  0
 23 43  1  0  0  0  0
 24 25  1  0  0  0  0
 24 44  1  0  0  0  0
M  END
>  <Line_Number>
118


> <IC50>
150000

$$$$
