145985856.0
 OpenBabel09302502333D

 48 50  0  0  0  0  0  0  0  0999 V2000
    0.6221   -0.6825   -0.2494 C   0  0  0  0  0  0  0  0  0  0  0  0
    1.9564   -1.1328   -0.0387 O   0  0  0  0  0  0  0  0  0  0  0  0
    2.7319   -1.2928   -1.1547 C   0  0  0  0  0  0  0  0  0  0  0  0
    4.0250   -1.7635   -0.9032 C   0  0  0  0  0  0  0  0  0  0  0  0
    4.9280   -1.9648   -1.9538 C   0  0  0  0  0  0  0  0  0  0  0  0
    4.5449   -1.6988   -3.2753 C   0  0  0  0  0  0  0  0  0  0  0  0
    5.5117   -1.9342   -4.3897 C   0  0  0  0  0  0  0  0  0  0  0  0
    6.6450   -2.3291   -4.1238 O   0  0  0  0  0  0  0  0  0  0  0  0
    5.0146   -1.6704   -5.6500 N   0  0  0  0  0  0  0  0  0  0  0  0
    5.5783   -2.3502   -6.5278 N   0  0  0  0  0  0  0  0  0  0  0  0
    5.0697   -2.1325   -7.8183 C   0  0  0  0  0  0  0  0  0  0  0  0
    5.0268   -3.1253   -8.7719 C   0  0  0  0  0  0  0  0  0  0  0  0
    5.3923   -4.4041   -8.7024 O   0  0  0  0  0  0  0  0  0  0  0  0
    4.5243   -2.5703   -9.9306 N   0  0  0  0  0  0  0  0  0  0  0  0
    4.4220   -3.2442  -11.2339 C   0  0  0  0  0  0  0  0  0  0  0  0
    3.0779   -3.8798  -11.4947 C   0  0  0  0  0  0  0  0  0  0  0  0
    2.4497   -4.0258  -12.6843 C   0  0  0  0  0  0  0  0  0  0  0  0
    2.9779   -3.5599  -14.0167 C   0  0  0  0  0  0  0  0  0  0  0  0
    1.1205   -4.7375  -12.7676 C   0  0  0  0  0  0  0  0  0  0  0  0
    4.2685   -1.2198   -9.7259 C   0  0  0  0  0  0  0  0  0  0  0  0
    3.7961   -0.2312  -10.6054 C   0  0  0  0  0  0  0  0  0  0  0  0
    3.6400    1.0701  -10.1205 C   0  0  0  0  0  0  0  0  0  0  0  0
    3.9432    1.3831   -8.8003 C   0  0  0  0  0  0  0  0  0  0  0  0
    4.4257    0.3995   -7.9343 C   0  0  0  0  0  0  0  0  0  0  0  0
    4.5942   -0.9238   -8.3940 C   0  0  0  0  0  0  0  0  0  0  0  0
    3.2521   -1.2296   -3.5297 C   0  0  0  0  0  0  0  0  0  0  0  0
    2.3627   -1.0317   -2.4766 C   0  0  0  0  0  0  0  0  0  0  0  0
    1.1405   -0.5779   -2.7902 F   0  0  0  0  0  0  0  0  0  0  0  0
    0.1432   -0.5749    0.7276 H   0  0  0  0  0  0  0  0  0  0  0  0
    0.0487   -1.4191   -0.8225 H   0  0  0  0  0  0  0  0  0  0  0  0
    0.6065    0.3015   -0.7300 H   0  0  0  0  0  0  0  0  0  0  0  0
    4.3338   -1.9757    0.1191 H   0  0  0  0  0  0  0  0  0  0  0  0
    5.9302   -2.3313   -1.7326 H   0  0  0  0  0  0  0  0  0  0  0  0
    5.7391   -4.5357   -7.7927 H   0  0  0  0  0  0  0  0  0  0  0  0
    5.2075   -4.0048  -11.2710 H   0  0  0  0  0  0  0  0  0  0  0  0
    4.6607   -2.4897  -11.9895 H   0  0  0  0  0  0  0  0  0  0  0  0
    2.5937   -4.2891  -10.6084 H   0  0  0  0  0  0  0  0  0  0  0  0
    3.9495   -3.0656  -13.9487 H   0  0  0  0  0  0  0  0  0  0  0  0
    2.2790   -2.8513  -14.4754 H   0  0  0  0  0  0  0  0  0  0  0  0
    3.0942   -4.4093  -14.6993 H   0  0  0  0  0  0  0  0  0  0  0  0
    0.7733   -5.0816  -11.7880 H   0  0  0  0  0  0  0  0  0  0  0  0
    1.1969   -5.6174  -13.4164 H   0  0  0  0  0  0  0  0  0  0  0  0
    0.3531   -4.0724  -13.1778 H   0  0  0  0  0  0  0  0  0  0  0  0
    3.5573   -0.4580  -11.6395 H   0  0  0  0  0  0  0  0  0  0  0  0
    3.2776    1.8480  -10.7874 H   0  0  0  0  0  0  0  0  0  0  0  0
    3.8134    2.4004   -8.4405 H   0  0  0  0  0  0  0  0  0  0  0  0
    4.6735    0.6631   -6.9089 H   0  0  0  0  0  0  0  0  0  0  0  0
    2.9063   -1.0089   -4.5356 H   0  0  0  0  0  0  0  0  0  0  0  0
  1  2  1  0  0  0  0
  1 29  1  0  0  0  0
  1 30  1  0  0  0  0
  1 31  1  0  0  0  0
  2  3  1  0  0  0  0
  3  4  1  0  0  0  0
  3 27  2  0  0  0  0
  4  5  2  0  0  0  0
  4 32  1  0  0  0  0
  5  6  1  0  0  0  0
  5 33  1  0  0  0  0
  6  7  1  0  0  0  0
  6 26  2  0  0  0  0
  7  8  2  0  0  0  0
  7  9  1  0  0  0  0
  9 10  2  3  0  0  0
 10 11  1  0  0  0  0
 11 12  2  0  0  0  0
 11 25  1  0  0  0  0
 12 13  1  0  0  0  0
 12 14  1  0  0  0  0
 13 34  1  0  0  0  0
 14 15  1  0  0  0  0
 14 20  1  0  0  0  0
 15 16  1  0  0  0  0
 15 35  1  0  0  0  0
 15 36  1  0  0  0  0
 16 17  2  0  0  0  0
 16 37  1  0  0  0  0
 17 18  1  0  0  0  0
 17 19  1  0  0  0  0
 18 38  1  0  0  0  0
 18 39  1  0  0  0  0
 18 40  1  0  0  0  0
 19 41  1  0  0  0  0
 19 42  1  0  0  0  0
 19 43  1  0  0  0  0
 20 21  1  0  0  0  0
 20 25  2  0  0  0  0
 21 22  2  0  0  0  0
 21 44  1  0  0  0  0
 22 23  1  0  0  0  0
 22 45  1  0  0  0  0
 23 24  2  0  0  0  0
 23 46  1  0  0  0  0
 24 25  1  0  0  0  0
 24 47  1  0  0  0  0
 26 27  1  0  0  0  0
 26 48  1  0  0  0  0
 27 28  1  0  0  0  0
M  END
>  <Line_Number>
119


> <IC50>
3880

$$$$
