49844555.0
 OpenBabel09302502333D

 45 46  0  0  0  0  0  0  0  0999 V2000
    0.7914    0.3869    1.0639 C   0  0  0  0  0  0  0  0  0  0  0  0
    2.3018    0.4081    1.1971 C   0  0  0  0  0  0  0  0  0  0  0  0
    2.8111   -0.9170    1.0341 O   0  0  0  0  0  0  0  0  0  0  0  0
    4.1684   -1.0788    1.1746 C   0  0  0  0  0  0  0  0  0  0  0  0
    5.0441   -0.0033    1.3786 C   0  0  0  0  0  0  0  0  0  0  0  0
    6.4111   -0.2041    1.5771 C   0  0  0  0  0  0  0  0  0  0  0  0
    6.9503   -1.4889    1.6111 C   0  0  0  0  0  0  0  0  0  0  0  0
    8.4313   -1.7332    1.8207 C   0  0  0  0  0  0  0  0  0  0  0  0
    9.1353   -0.6963    2.7124 C   0  0  0  0  0  0  0  0  0  0  0  0
   10.5862   -1.0269    2.9614 C   0  0  0  0  0  0  0  0  0  0  0  0
   10.9476   -1.8042    4.0761 C   0  0  0  0  0  0  0  0  0  0  0  0
   12.2881   -2.1179    4.3336 C   0  0  0  0  0  0  0  0  0  0  0  0
   13.2730   -1.6640    3.4645 C   0  0  0  0  0  0  0  0  0  0  0  0
   14.5974   -1.9373    3.6635 O   0  0  0  0  0  0  0  0  0  0  0  0
   12.9268   -0.9046    2.3540 C   0  0  0  0  0  0  0  0  0  0  0  0
   13.8915   -0.4629    1.4869 O   0  0  0  0  0  0  0  0  0  0  0  0
   11.5968   -0.5804    2.1066 C   0  0  0  0  0  0  0  0  0  0  0  0
   11.2971    0.1933    1.0195 O   0  0  0  0  0  0  0  0  0  0  0  0
    6.0820   -2.5674    1.3749 C   0  0  0  0  0  0  0  0  0  0  0  0
    4.7087   -2.3747    1.1327 C   0  0  0  0  0  0  0  0  0  0  0  0
    4.0290   -3.5460    0.9082 O   0  0  0  0  0  0  0  0  0  0  0  0
    2.9002   -3.4792    0.0383 C   0  0  0  0  0  0  0  0  0  0  0  0
    2.7460   -4.8326   -0.6422 C   0  0  0  0  0  0  0  0  0  0  0  0
    0.3843    1.3946    1.1975 H   0  0  0  0  0  0  0  0  0  0  0  0
    0.3447   -0.2761    1.8105 H   0  0  0  0  0  0  0  0  0  0  0  0
    0.4954    0.0160    0.0781 H   0  0  0  0  0  0  0  0  0  0  0  0
    2.5591    0.7926    2.1913 H   0  0  0  0  0  0  0  0  0  0  0  0
    2.7080    1.0651    0.4192 H   0  0  0  0  0  0  0  0  0  0  0  0
    4.7001    1.0250    1.3916 H   0  0  0  0  0  0  0  0  0  0  0  0
    7.0370    0.6748    1.7090 H   0  0  0  0  0  0  0  0  0  0  0  0
    8.9118   -1.7669    0.8347 H   0  0  0  0  0  0  0  0  0  0  0  0
    8.5629   -2.7261    2.2714 H   0  0  0  0  0  0  0  0  0  0  0  0
    8.6143   -0.6162    3.6759 H   0  0  0  0  0  0  0  0  0  0  0  0
    9.0810    0.3051    2.2694 H   0  0  0  0  0  0  0  0  0  0  0  0
   10.1785   -2.1642    4.7573 H   0  0  0  0  0  0  0  0  0  0  0  0
   12.5337   -2.7123    5.2075 H   0  0  0  0  0  0  0  0  0  0  0  0
   14.6815   -2.4201    4.5042 H   0  0  0  0  0  0  0  0  0  0  0  0
   14.7207   -0.8452    1.8412 H   0  0  0  0  0  0  0  0  0  0  0  0
   12.1670    0.4024    0.6218 H   0  0  0  0  0  0  0  0  0  0  0  0
    6.4730   -3.5837    1.3630 H   0  0  0  0  0  0  0  0  0  0  0  0
    3.0234   -2.7193   -0.7400 H   0  0  0  0  0  0  0  0  0  0  0  0
    2.0016   -3.2759    0.6306 H   0  0  0  0  0  0  0  0  0  0  0  0
    3.6237   -5.0522   -1.2596 H   0  0  0  0  0  0  0  0  0  0  0  0
    1.8578   -4.8480   -1.2811 H   0  0  0  0  0  0  0  0  0  0  0  0
    2.6656   -5.6373    0.0958 H   0  0  0  0  0  0  0  0  0  0  0  0
  1  2  1  0  0  0  0
  1 24  1  0  0  0  0
  1 25  1  0  0  0  0
  1 26  1  0  0  0  0
  2  3  1  0  0  0  0
  2 27  1  0  0  0  0
  2 28  1  0  0  0  0
  3  4  1  0  0  0  0
  4  5  1  0  0  0  0
  4 20  2  0  0  0  0
  5  6  2  0  0  0  0
  5 29  1  0  0  0  0
  6  7  1  0  0  0  0
  6 30  1  0  0  0  0
  7  8  1  0  0  0  0
  7 19  2  0  0  0  0
  8  9  1  0  0  0  0
  8 31  1  0  0  0  0
  8 32  1  0  0  0  0
  9 10  1  0  0  0  0
  9 33  1  0  0  0  0
  9 34  1  0  0  0  0
 10 11  1  0  0  0  0
 10 17  2  0  0  0  0
 11 12  2  0  0  0  0
 11 35  1  0  0  0  0
 12 13  1  0  0  0  0
 12 36  1  0  0  0  0
 13 14  1  0  0  0  0
 13 15  2  0  0  0  0
 14 37  1  0  0  0  0
 15 16  1  0  0  0  0
 15 17  1  0  0  0  0
 16 38  1  0  0  0  0
 17 18  1  0  0  0  0
 18 39  1  0  0  0  0
 19 20  1  0  0  0  0
 19 40  1  0  0  0  0
 20 21  1  0  0  0  0
 21 22  1  0  0  0  0
 22 23  1  0  0  0  0
 22 41  1  0  0  0  0
 22 42  1  0  0  0  0
 23 43  1  0  0  0  0
 23 44  1  0  0  0  0
 23 45  1  0  0  0  0
M  END
>  <Line_Number>
11


> <IC50>
69000

$$$$
