168282573.0
 OpenBabel09302502333D

 44 46  0  0  0  0  0  0  0  0999 V2000
    3.0221    0.0124    1.0555 O   0  0  0  0  0  0  0  0  0  0  0  0
    2.2813    0.0202    0.0731 C   0  0  0  0  0  0  0  0  0  0  0  0
    2.8419   -0.3937   -1.2907 C   0  0  0  0  0  0  0  0  0  0  0  0
    1.9418   -0.3199   -2.3910 O   0  0  0  0  0  0  0  0  0  0  0  0
    2.5175   -0.6062   -3.6097 C   0  0  0  0  0  0  0  0  0  0  0  0
    3.6316   -1.4297   -3.7960 C   0  0  0  0  0  0  0  0  0  0  0  0
    4.1508   -1.6498   -5.0769 C   0  0  0  0  0  0  0  0  0  0  0  0
    3.5621   -1.0552   -6.1970 C   0  0  0  0  0  0  0  0  0  0  0  0
    4.1391   -1.2822   -7.5798 C   0  0  0  0  0  0  0  0  0  0  0  0
    3.5894   -2.5158   -8.3112 C   0  0  0  0  0  0  0  0  0  0  0  0
    2.1050   -2.3982   -8.5189 C   0  0  0  0  0  0  0  0  0  0  0  0
    1.5964   -1.4400   -9.0990 O   0  0  0  0  0  0  0  0  0  0  0  0
    1.3243   -3.4099   -8.0444 N   0  0  0  0  0  0  0  0  0  0  0  0
    1.7571   -4.5508   -7.4493 C   0  0  0  0  0  0  0  0  0  0  0  0
    0.9746   -5.3818   -7.0018 O   0  0  0  0  0  0  0  0  0  0  0  0
    3.1018   -4.7244   -7.3674 N   0  0  0  0  0  0  0  0  0  0  0  0
    4.0517   -3.7911   -7.6593 C   0  0  0  0  0  0  0  0  0  0  0  0
    5.2352   -4.0133   -7.4063 O   0  0  0  0  0  0  0  0  0  0  0  0
    2.4316   -0.2486   -6.0085 C   0  0  0  0  0  0  0  0  0  0  0  0
    1.9108   -0.0331   -4.7230 C   0  0  0  0  0  0  0  0  0  0  0  0
    0.9395    0.3392    0.0809 N   0  0  0  0  0  0  0  0  0  0  0  0
    0.1763    0.8030    1.1861 C   0  0  0  0  0  0  0  0  0  0  0  0
    0.7736    1.2300    2.3812 C   0  0  0  0  0  0  0  0  0  0  0  0
    0.0022    1.6902    3.4513 C   0  0  0  0  0  0  0  0  0  0  0  0
   -1.3831    1.7358    3.3407 C   0  0  0  0  0  0  0  0  0  0  0  0
   -2.0030    1.3212    2.1583 C   0  0  0  0  0  0  0  0  0  0  0  0
   -3.7298    1.4019    2.1014 Cl  0  0  0  0  0  0  0  0  0  0  0  0
   -1.2297    0.8589    1.0787 C   0  0  0  0  0  0  0  0  0  0  0  0
   -1.9883    0.3271   -0.3938 Cl  0  0  0  0  0  0  0  0  0  0  0  0
    3.1785   -1.4267   -1.1513 H   0  0  0  0  0  0  0  0  0  0  0  0
    3.6966    0.2691   -1.4784 H   0  0  0  0  0  0  0  0  0  0  0  0
    4.1268   -1.9270   -2.9679 H   0  0  0  0  0  0  0  0  0  0  0  0
    5.0315   -2.2816   -5.1851 H   0  0  0  0  0  0  0  0  0  0  0  0
    5.2319   -1.3546   -7.4924 H   0  0  0  0  0  0  0  0  0  0  0  0
    3.9592   -0.3832   -8.1839 H   0  0  0  0  0  0  0  0  0  0  0  0
    4.0250   -2.5403   -9.3206 H   0  0  0  0  0  0  0  0  0  0  0  0
    0.3246   -3.3016   -8.1421 H   0  0  0  0  0  0  0  0  0  0  0  0
    3.4181   -5.5686   -6.9105 H   0  0  0  0  0  0  0  0  0  0  0  0
    1.9507    0.2331   -6.8598 H   0  0  0  0  0  0  0  0  0  0  0  0
    1.0385    0.6041   -4.6040 H   0  0  0  0  0  0  0  0  0  0  0  0
    0.4249    0.1456   -0.7766 H   0  0  0  0  0  0  0  0  0  0  0  0
    1.8522    1.2359    2.5106 H   0  0  0  0  0  0  0  0  0  0  0  0
    0.4908    2.0215    4.3658 H   0  0  0  0  0  0  0  0  0  0  0  0
   -1.9773    2.0962    4.1775 H   0  0  0  0  0  0  0  0  0  0  0  0
  1  2  2  0  0  0  0
  2  3  1  0  0  0  0
  2 21  1  0  0  0  0
  3  4  1  0  0  0  0
  3 30  1  0  0  0  0
  3 31  1  0  0  0  0
  4  5  1  0  0  0  0
  5  6  1  0  0  0  0
  5 20  2  0  0  0  0
  6  7  2  0  0  0  0
  6 32  1  0  0  0  0
  7  8  1  0  0  0  0
  7 33  1  0  0  0  0
  8  9  1  0  0  0  0
  8 19  2  0  0  0  0
  9 10  1  0  0  0  0
  9 34  1  0  0  0  0
  9 35  1  0  0  0  0
 10 11  1  0  0  0  0
 10 17  1  0  0  0  0
 10 36  1  0  0  0  0
 11 12  2  0  0  0  0
 11 13  1  0  0  0  0
 13 14  1  0  0  0  0
 13 37  1  0  0  0  0
 14 15  2  0  0  0  0
 14 16  1  0  0  0  0
 16 17  1  0  0  0  0
 16 38  1  0  0  0  0
 17 18  2  0  0  0  0
 19 20  1  0  0  0  0
 19 39  1  0  0  0  0
 20 40  1  0  0  0  0
 21 22  1  0  0  0  0
 21 41  1  0  0  0  0
 22 23  1  0  0  0  0
 22 28  2  0  0  0  0
 23 24  2  0  0  0  0
 23 42  1  0  0  0  0
 24 25  1  0  0  0  0
 24 43  1  0  0  0  0
 25 26  2  0  0  0  0
 25 44  1  0  0  0  0
 26 27  1  0  0  0  0
 26 28  1  0  0  0  0
 28 29  1  0  0  0  0
M  END
>  <Line_Number>
120


> <IC50>
690

$$$$
