168288909.0
 OpenBabel09302502333D

 37 38  0  0  0  0  0  0  0  0999 V2000
    2.1392   -2.1567    0.1330 O   0  0  0  0  0  0  0  0  0  0  0  0
    2.7232   -1.0809    0.0076 C   0  0  0  0  0  0  0  0  0  0  0  0
    2.9385   -0.3821   -1.3223 C   0  0  0  0  0  0  0  0  0  0  0  0
    2.0275   -0.8525   -2.3970 N   0  0  0  0  0  0  0  0  0  0  0  0
    0.6481   -0.4866   -2.2947 C   0  0  0  0  0  0  0  0  0  0  0  0
   -0.2965   -1.5175   -2.2311 C   0  0  0  0  0  0  0  0  0  0  0  0
   -1.6572   -1.2316   -2.1099 C   0  0  0  0  0  0  0  0  0  0  0  0
   -2.0828    0.0933   -2.0358 C   0  0  0  0  0  0  0  0  0  0  0  0
   -1.1373    1.1254   -2.0977 C   0  0  0  0  0  0  0  0  0  0  0  0
   -1.5825    2.5171   -1.9610 N   0  3  0  0  0  0  0  0  0  0  0  0
   -2.7899    2.7211   -1.7613 O   0  0  0  0  0  0  0  0  0  0  0  0
   -0.7228    3.4075   -2.0298 O   0  5  0  0  0  0  0  0  0  0  0  0
    0.2281    0.8461   -2.2499 C   0  0  0  0  0  0  0  0  0  0  0  0
    2.7085   -0.8885   -3.9581 S   0  0  0  0  0  0  0  0  0  0  0  0
    1.6832   -1.0165   -4.9681 O   0  0  0  0  0  0  0  0  0  0  0  0
    3.6627    0.2043   -4.0300 O   0  0  0  0  0  0  0  0  0  0  0  0
    3.6451   -2.4042   -3.8717 C   0  0  0  0  0  0  0  0  0  0  0  0
    5.0002   -2.3174   -3.4993 C   0  0  0  0  0  0  0  0  0  0  0  0
    5.7579   -3.4730   -3.3087 C   0  0  0  0  0  0  0  0  0  0  0  0
    5.1821   -4.7198   -3.5247 C   0  0  0  0  0  0  0  0  0  0  0  0
    3.8536   -4.8080   -3.9432 C   0  0  0  0  0  0  0  0  0  0  0  0
    3.0743   -3.6548   -4.1173 C   0  0  0  0  0  0  0  0  0  0  0  0
    1.4407   -3.9235   -4.5998 Cl  0  0  0  0  0  0  0  0  0  0  0  0
    3.3230   -0.4947    1.0950 N   0  0  0  0  0  0  0  0  0  0  0  0
    3.7139    0.8541    0.9978 O   0  0  0  0  0  0  0  0  0  0  0  0
    3.9832   -0.5817   -1.5792 H   0  0  0  0  0  0  0  0  0  0  0  0
    2.8344    0.7014   -1.2110 H   0  0  0  0  0  0  0  0  0  0  0  0
    0.0308   -2.5532   -2.2566 H   0  0  0  0  0  0  0  0  0  0  0  0
   -2.3758   -2.0444   -2.0612 H   0  0  0  0  0  0  0  0  0  0  0  0
   -3.1458    0.3007   -1.9243 H   0  0  0  0  0  0  0  0  0  0  0  0
    0.9581    1.6498   -2.3177 H   0  0  0  0  0  0  0  0  0  0  0  0
    5.4717   -1.3509   -3.3293 H   0  0  0  0  0  0  0  0  0  0  0  0
    6.7947   -3.4014   -2.9860 H   0  0  0  0  0  0  0  0  0  0  0  0
    5.7636   -5.6260   -3.3705 H   0  0  0  0  0  0  0  0  0  0  0  0
    3.4217   -5.7915   -4.1216 H   0  0  0  0  0  0  0  0  0  0  0  0
    3.0132   -0.8199    2.0076 H   0  0  0  0  0  0  0  0  0  0  0  0
    4.6837    0.7896    0.8961 H   0  0  0  0  0  0  0  0  0  0  0  0
  1  2  2  0  0  0  0
  2  3  1  0  0  0  0
  2 24  1  0  0  0  0
  3  4  1  0  0  0  0
  3 26  1  0  0  0  0
  3 27  1  0  0  0  0
  4  5  1  0  0  0  0
  4 14  1  0  0  0  0
  5  6  1  0  0  0  0
  5 13  2  0  0  0  0
  6  7  2  0  0  0  0
  6 28  1  0  0  0  0
  7  8  1  0  0  0  0
  7 29  1  0  0  0  0
  8  9  2  0  0  0  0
  8 30  1  0  0  0  0
  9 10  1  0  0  0  0
  9 13  1  0  0  0  0
 10 11  2  0  0  0  0
 10 12  1  0  0  0  0
 13 31  1  0  0  0  0
 14 15  2  0  0  0  0
 14 16  2  0  0  0  0
 14 17  1  0  0  0  0
 17 18  1  0  0  0  0
 17 22  2  0  0  0  0
 18 19  2  0  0  0  0
 18 32  1  0  0  0  0
 19 20  1  0  0  0  0
 19 33  1  0  0  0  0
 20 21  2  0  0  0  0
 20 34  1  0  0  0  0
 21 22  1  0  0  0  0
 21 35  1  0  0  0  0
 22 23  1  0  0  0  0
 24 25  1  0  0  0  0
 24 36  1  0  0  0  0
 25 37  1  0  0  0  0
M  CHG  2  10   1  12  -1
M  END
>  <Line_Number>
121


> <IC50>
22000

$$$$
