168277096.0
 OpenBabel09302502333D

 37 38  0  0  0  0  0  0  0  0999 V2000
    2.3686    0.6920   -2.2876 O   0  0  0  0  0  0  0  0  0  0  0  0
    2.8989    0.4094   -1.2124 C   0  0  0  0  0  0  0  0  0  0  0  0
    2.9839    1.3719   -0.0281 C   0  0  0  0  0  0  0  0  0  0  0  0
    2.0169    2.4916   -0.1645 N   0  0  0  0  0  0  0  0  0  0  0  0
    0.6236    2.1736   -0.0253 C   0  0  0  0  0  0  0  0  0  0  0  0
   -0.2045    2.3989   -1.1278 C   0  0  0  0  0  0  0  0  0  0  0  0
   -1.5485    2.0363   -1.0904 C   0  0  0  0  0  0  0  0  0  0  0  0
   -2.0767    1.4370    0.0515 C   0  0  0  0  0  0  0  0  0  0  0  0
   -1.2483    1.2262    1.1634 C   0  0  0  0  0  0  0  0  0  0  0  0
   -1.7920    0.5352    2.3404 N   0  3  0  0  0  0  0  0  0  0  0  0
   -2.9397    0.0734    2.2585 O   0  0  0  0  0  0  0  0  0  0  0  0
   -1.0625    0.4314    3.3362 O   0  5  0  0  0  0  0  0  0  0  0  0
    0.0999    1.6156    1.1443 C   0  0  0  0  0  0  0  0  0  0  0  0
    2.5248    4.0298    0.3534 S   0  0  0  0  0  0  0  0  0  0  0  0
    1.3705    4.8982    0.4243 O   0  0  0  0  0  0  0  0  0  0  0  0
    3.4043    3.8150    1.4828 O   0  0  0  0  0  0  0  0  0  0  0  0
    3.5314    4.6569   -0.9767 C   0  0  0  0  0  0  0  0  0  0  0  0
    3.7101    3.9113   -2.1501 C   0  0  0  0  0  0  0  0  0  0  0  0
    4.5658    4.3708   -3.1499 C   0  0  0  0  0  0  0  0  0  0  0  0
    4.8365    3.4077   -4.5486 Cl  0  0  0  0  0  0  0  0  0  0  0  0
    5.2121    5.5941   -3.0178 C   0  0  0  0  0  0  0  0  0  0  0  0
    4.9924    6.3663   -1.8757 C   0  0  0  0  0  0  0  0  0  0  0  0
    4.1578    5.9015   -0.8481 C   0  0  0  0  0  0  0  0  0  0  0  0
    3.9584    6.9421    0.5140 Cl  0  0  0  0  0  0  0  0  0  0  0  0
    3.5384   -0.7927   -1.0725 N   0  0  0  0  0  0  0  0  0  0  0  0
    3.8228   -1.2437    0.2291 O   0  0  0  0  0  0  0  0  0  0  0  0
    4.0132    1.7477   -0.0128 H   0  0  0  0  0  0  0  0  0  0  0  0
    2.8039    0.8436    0.9130 H   0  0  0  0  0  0  0  0  0  0  0  0
    0.2086    2.8312   -2.0367 H   0  0  0  0  0  0  0  0  0  0  0  0
   -2.1798    2.2005   -1.9639 H   0  0  0  0  0  0  0  0  0  0  0  0
   -3.1220    1.1340    0.0564 H   0  0  0  0  0  0  0  0  0  0  0  0
    0.7364    1.4619    2.0120 H   0  0  0  0  0  0  0  0  0  0  0  0
    3.1908    2.9758   -2.3123 H   0  0  0  0  0  0  0  0  0  0  0  0
    5.8771    5.9555   -3.7986 H   0  0  0  0  0  0  0  0  0  0  0  0
    5.4822    7.3354   -1.7913 H   0  0  0  0  0  0  0  0  0  0  0  0
    3.2975   -1.5005   -1.7633 H   0  0  0  0  0  0  0  0  0  0  0  0
    4.7921   -1.1328    0.2846 H   0  0  0  0  0  0  0  0  0  0  0  0
  1  2  2  0  0  0  0
  2  3  1  0  0  0  0
  2 25  1  0  0  0  0
  3  4  1  0  0  0  0
  3 27  1  0  0  0  0
  3 28  1  0  0  0  0
  4  5  1  0  0  0  0
  4 14  1  0  0  0  0
  5  6  1  0  0  0  0
  5 13  2  0  0  0  0
  6  7  2  0  0  0  0
  6 29  1  0  0  0  0
  7  8  1  0  0  0  0
  7 30  1  0  0  0  0
  8  9  2  0  0  0  0
  8 31  1  0  0  0  0
  9 10  1  0  0  0  0
  9 13  1  0  0  0  0
 10 11  2  0  0  0  0
 10 12  1  0  0  0  0
 13 32  1  0  0  0  0
 14 15  2  0  0  0  0
 14 16  2  0  0  0  0
 14 17  1  0  0  0  0
 17 18  1  0  0  0  0
 17 23  2  0  0  0  0
 18 19  2  0  0  0  0
 18 33  1  0  0  0  0
 19 20  1  0  0  0  0
 19 21  1  0  0  0  0
 21 22  2  0  0  0  0
 21 34  1  0  0  0  0
 22 23  1  0  0  0  0
 22 35  1  0  0  0  0
 23 24  1  0  0  0  0
 25 26  1  0  0  0  0
 25 36  1  0  0  0  0
 26 37  1  0  0  0  0
M  CHG  2  10   1  12  -1
M  END
>  <Line_Number>
122


> <IC50>
27500

$$$$
