168280507.0
 OpenBabel09302502333D

 37 38  0  0  0  0  0  0  0  0999 V2000
    2.2842    0.4098    0.9794 O   0  0  0  0  0  0  0  0  0  0  0  0
    2.2953   -0.4170    0.0666 C   0  0  0  0  0  0  0  0  0  0  0  0
    2.8447   -0.0909   -1.3079 C   0  0  0  0  0  0  0  0  0  0  0  0
    1.9055   -0.3050   -2.4347 N   0  0  0  0  0  0  0  0  0  0  0  0
    0.5067   -0.0405   -2.2540 C   0  0  0  0  0  0  0  0  0  0  0  0
    0.0410    1.1914   -1.7869 C   0  0  0  0  0  0  0  0  0  0  0  0
   -1.3290    1.3930   -1.5861 C   0  0  0  0  0  0  0  0  0  0  0  0
   -2.2375    0.3715   -1.8705 C   0  0  0  0  0  0  0  0  0  0  0  0
   -1.7673   -0.8469   -2.3762 C   0  0  0  0  0  0  0  0  0  0  0  0
   -2.7183   -1.9170   -2.7030 N   0  3  0  0  0  0  0  0  0  0  0  0
   -3.9263   -1.6684   -2.5876 O   0  0  0  0  0  0  0  0  0  0  0  0
   -2.2545   -3.0039   -3.0735 O   0  5  0  0  0  0  0  0  0  0  0  0
   -0.3983   -1.0560   -2.5737 C   0  0  0  0  0  0  0  0  0  0  0  0
    2.5524   -0.0546   -3.9952 S   0  0  0  0  0  0  0  0  0  0  0  0
    3.9655   -0.3625   -3.9398 O   0  0  0  0  0  0  0  0  0  0  0  0
    1.6901   -0.7196   -4.9503 O   0  0  0  0  0  0  0  0  0  0  0  0
    2.4156    1.7042   -4.3032 C   0  0  0  0  0  0  0  0  0  0  0  0
    3.4673    2.5648   -3.9653 C   0  0  0  0  0  0  0  0  0  0  0  0
    3.4164    3.9061   -4.3558 C   0  0  0  0  0  0  0  0  0  0  0  0
    2.3318    4.3733   -5.0943 C   0  0  0  0  0  0  0  0  0  0  0  0
    2.3018    5.6482   -5.4954 F   0  0  0  0  0  0  0  0  0  0  0  0
    1.2849    3.5214   -5.4406 C   0  0  0  0  0  0  0  0  0  0  0  0
    1.3271    2.1816   -5.0533 C   0  0  0  0  0  0  0  0  0  0  0  0
    1.8924   -1.7288    0.2199 N   0  0  0  0  0  0  0  0  0  0  0  0
    1.2258   -2.0261    1.4310 O   0  0  0  0  0  0  0  0  0  0  0  0
    3.7086   -0.7569   -1.4415 H   0  0  0  0  0  0  0  0  0  0  0  0
    3.2088    0.9399   -1.3024 H   0  0  0  0  0  0  0  0  0  0  0  0
    0.7288    2.0009   -1.5545 H   0  0  0  0  0  0  0  0  0  0  0  0
   -1.6876    2.3433   -1.1979 H   0  0  0  0  0  0  0  0  0  0  0  0
   -3.2994    0.5394   -1.6941 H   0  0  0  0  0  0  0  0  0  0  0  0
   -0.0280   -2.0026   -2.9634 H   0  0  0  0  0  0  0  0  0  0  0  0
    4.3430    2.1972   -3.4338 H   0  0  0  0  0  0  0  0  0  0  0  0
    4.2278    4.5863   -4.1217 H   0  0  0  0  0  0  0  0  0  0  0  0
    0.4583    3.9015   -6.0397 H   0  0  0  0  0  0  0  0  0  0  0  0
    0.5290    1.5102   -5.3654 H   0  0  0  0  0  0  0  0  0  0  0  0
    1.6009   -2.2727   -0.5856 H   0  0  0  0  0  0  0  0  0  0  0  0
    1.9487   -1.9600    2.0899 H   0  0  0  0  0  0  0  0  0  0  0  0
  1  2  2  0  0  0  0
  2  3  1  0  0  0  0
  2 24  1  0  0  0  0
  3  4  1  0  0  0  0
  3 26  1  0  0  0  0
  3 27  1  0  0  0  0
  4  5  1  0  0  0  0
  4 14  1  0  0  0  0
  5  6  1  0  0  0  0
  5 13  2  0  0  0  0
  6  7  2  0  0  0  0
  6 28  1  0  0  0  0
  7  8  1  0  0  0  0
  7 29  1  0  0  0  0
  8  9  2  0  0  0  0
  8 30  1  0  0  0  0
  9 10  1  0  0  0  0
  9 13  1  0  0  0  0
 10 11  2  0  0  0  0
 10 12  1  0  0  0  0
 13 31  1  0  0  0  0
 14 15  2  0  0  0  0
 14 16  2  0  0  0  0
 14 17  1  0  0  0  0
 17 18  1  0  0  0  0
 17 23  2  0  0  0  0
 18 19  2  0  0  0  0
 18 32  1  0  0  0  0
 19 20  1  0  0  0  0
 19 33  1  0  0  0  0
 20 21  1  0  0  0  0
 20 22  2  0  0  0  0
 22 23  1  0  0  0  0
 22 34  1  0  0  0  0
 23 35  1  0  0  0  0
 24 25  1  0  0  0  0
 24 36  1  0  0  0  0
 25 37  1  0  0  0  0
M  CHG  2  10   1  12  -1
M  END
>  <Line_Number>
123


> <IC50>
3330

$$$$
