168295046.0
 OpenBabel09302502333D

 37 38  0  0  0  0  0  0  0  0999 V2000
    2.2816    0.7685    0.7417 O   0  0  0  0  0  0  0  0  0  0  0  0
    2.2963   -0.3687    0.2723 C   0  0  0  0  0  0  0  0  0  0  0  0
    2.8296   -0.6660   -1.1195 C   0  0  0  0  0  0  0  0  0  0  0  0
    1.8972   -1.4064   -2.0028 N   0  0  0  0  0  0  0  0  0  0  0  0
    0.4920   -1.1085   -1.9609 C   0  0  0  0  0  0  0  0  0  0  0  0
    0.0120    0.2009   -2.0636 C   0  0  0  0  0  0  0  0  0  0  0  0
   -1.3623    0.4489   -2.0035 C   0  0  0  0  0  0  0  0  0  0  0  0
   -2.2619   -0.6087   -1.8589 C   0  0  0  0  0  0  0  0  0  0  0  0
   -1.7759   -1.9204   -1.7932 C   0  0  0  0  0  0  0  0  0  0  0  0
   -2.7134   -3.0416   -1.6643 N   0  3  0  0  0  0  0  0  0  0  0  0
   -3.9244   -2.7833   -1.7107 O   0  0  0  0  0  0  0  0  0  0  0  0
   -2.2394   -4.1758   -1.5166 O   0  5  0  0  0  0  0  0  0  0  0  0
   -0.4013   -2.1749   -1.8504 C   0  0  0  0  0  0  0  0  0  0  0  0
    2.5355   -1.8687   -3.5248 S   0  0  0  0  0  0  0  0  0  0  0  0
    3.9593   -2.0783   -3.3582 O   0  0  0  0  0  0  0  0  0  0  0  0
    1.6947   -2.9193   -4.0653 O   0  0  0  0  0  0  0  0  0  0  0  0
    2.3413   -0.4373   -4.5809 C   0  0  0  0  0  0  0  0  0  0  0  0
    3.3523    0.5236   -4.6564 C   0  0  0  0  0  0  0  0  0  0  0  0
    3.2595    1.5527   -5.5999 C   0  0  0  0  0  0  0  0  0  0  0  0
    2.1695    1.6061   -6.4693 C   0  0  0  0  0  0  0  0  0  0  0  0
    2.0754    2.9643   -7.7813 Br  0  0  0  0  0  0  0  0  0  0  0  0
    1.1610    0.6450   -6.3986 C   0  0  0  0  0  0  0  0  0  0  0  0
    1.2446   -0.3843   -5.4582 C   0  0  0  0  0  0  0  0  0  0  0  0
    1.9080   -1.4828    0.9811 N   0  0  0  0  0  0  0  0  0  0  0  0
    1.3125   -1.2610    2.2411 O   0  0  0  0  0  0  0  0  0  0  0  0
    3.7250   -1.2805   -0.9585 H   0  0  0  0  0  0  0  0  0  0  0  0
    3.1394    0.2749   -1.5830 H   0  0  0  0  0  0  0  0  0  0  0  0
    0.6911    1.0424   -2.1770 H   0  0  0  0  0  0  0  0  0  0  0  0
   -1.7330    1.4708   -2.0616 H   0  0  0  0  0  0  0  0  0  0  0  0
   -3.3283   -0.3970   -1.7993 H   0  0  0  0  0  0  0  0  0  0  0  0
   -0.0201   -3.1935   -1.8011 H   0  0  0  0  0  0  0  0  0  0  0  0
    4.2353    0.4613   -4.0227 H   0  0  0  0  0  0  0  0  0  0  0  0
    4.0578    2.2917   -5.6729 H   0  0  0  0  0  0  0  0  0  0  0  0
    0.3224    0.6702   -7.0915 H   0  0  0  0  0  0  0  0  0  0  0  0
    0.4762   -1.1558   -5.4383 H   0  0  0  0  0  0  0  0  0  0  0  0
    1.6884   -2.3646    0.5261 H   0  0  0  0  0  0  0  0  0  0  0  0
    1.9368   -0.6394    2.6677 H   0  0  0  0  0  0  0  0  0  0  0  0
  1  2  2  0  0  0  0
  2  3  1  0  0  0  0
  2 24  1  0  0  0  0
  3  4  1  0  0  0  0
  3 26  1  0  0  0  0
  3 27  1  0  0  0  0
  4  5  1  0  0  0  0
  4 14  1  0  0  0  0
  5  6  1  0  0  0  0
  5 13  2  0  0  0  0
  6  7  2  0  0  0  0
  6 28  1  0  0  0  0
  7  8  1  0  0  0  0
  7 29  1  0  0  0  0
  8  9  2  0  0  0  0
  8 30  1  0  0  0  0
  9 10  1  0  0  0  0
  9 13  1  0  0  0  0
 10 11  2  0  0  0  0
 10 12  1  0  0  0  0
 13 31  1  0  0  0  0
 14 15  2  0  0  0  0
 14 16  2  0  0  0  0
 14 17  1  0  0  0  0
 17 18  1  0  0  0  0
 17 23  2  0  0  0  0
 18 19  2  0  0  0  0
 18 32  1  0  0  0  0
 19 20  1  0  0  0  0
 19 33  1  0  0  0  0
 20 21  1  0  0  0  0
 20 22  2  0  0  0  0
 22 23  1  0  0  0  0
 22 34  1  0  0  0  0
 23 35  1  0  0  0  0
 24 25  1  0  0  0  0
 24 36  1  0  0  0  0
 25 37  1  0  0  0  0
M  CHG  2  10   1  12  -1
M  END
>  <Line_Number>
124


> <IC50>
97

$$$$
