168292848.0
 OpenBabel09302502333D

 37 38  0  0  0  0  0  0  0  0999 V2000
    2.1071    0.6589    2.1804 O   0  0  0  0  0  0  0  0  0  0  0  0
    2.6803    0.3342    1.1411 C   0  0  0  0  0  0  0  0  0  0  0  0
    2.9166   -1.1013    0.6967 C   0  0  0  0  0  0  0  0  0  0  0  0
    1.9259   -2.0581    1.2658 N   0  0  0  0  0  0  0  0  0  0  0  0
    0.5373   -1.8374    0.9180 C   0  0  0  0  0  0  0  0  0  0  0  0
    0.1065   -1.6470   -0.4028 C   0  0  0  0  0  0  0  0  0  0  0  0
   -1.2575   -1.4974   -0.6877 C   0  0  0  0  0  0  0  0  0  0  0  0
   -2.2014   -1.5999    0.3344 C   0  0  0  0  0  0  0  0  0  0  0  0
   -1.7700   -1.8560    1.6408 C   0  0  0  0  0  0  0  0  0  0  0  0
   -2.7556   -2.0736    2.7041 N   0  3  0  0  0  0  0  0  0  0  0  0
   -3.9427   -2.1993    2.3694 O   0  0  0  0  0  0  0  0  0  0  0  0
   -2.3443   -2.1287    3.8713 O   0  5  0  0  0  0  0  0  0  0  0  0
   -0.4057   -1.9543    1.9407 C   0  0  0  0  0  0  0  0  0  0  0  0
    2.4034   -3.7045    1.1807 S   0  0  0  0  0  0  0  0  0  0  0  0
    1.2613   -4.5416    1.4939 O   0  0  0  0  0  0  0  0  0  0  0  0
    3.1156   -3.8905   -0.0666 O   0  0  0  0  0  0  0  0  0  0  0  0
    3.5376   -3.9209    2.5286 C   0  0  0  0  0  0  0  0  0  0  0  0
    3.0611   -4.4298    3.7479 C   0  0  0  0  0  0  0  0  0  0  0  0
    3.9644   -4.8554    4.7132 C   0  0  0  0  0  0  0  0  0  0  0  0
    3.5068   -5.3692    5.8611 F   0  0  0  0  0  0  0  0  0  0  0  0
    5.3363   -4.7929    4.4920 C   0  0  0  0  0  0  0  0  0  0  0  0
    5.8120   -4.2593    3.2945 C   0  0  0  0  0  0  0  0  0  0  0  0
    4.9127   -3.8189    2.3189 C   0  0  0  0  0  0  0  0  0  0  0  0
    5.4068   -3.2922    1.1939 F   0  0  0  0  0  0  0  0  0  0  0  0
    3.1992    1.2784    0.2824 N   0  0  0  0  0  0  0  0  0  0  0  0
    2.9414    2.6306    0.6002 O   0  0  0  0  0  0  0  0  0  0  0  0
    3.9268   -1.3559    1.0253 H   0  0  0  0  0  0  0  0  0  0  0  0
    2.8972   -1.1451   -0.3996 H   0  0  0  0  0  0  0  0  0  0  0  0
    0.8090   -1.6295   -1.2290 H   0  0  0  0  0  0  0  0  0  0  0  0
   -1.5858   -1.3289   -1.7101 H   0  0  0  0  0  0  0  0  0  0  0  0
   -3.2599   -1.5005    0.0976 H   0  0  0  0  0  0  0  0  0  0  0  0
   -0.0677   -2.1438    2.9565 H   0  0  0  0  0  0  0  0  0  0  0  0
    1.9956   -4.5459    3.9340 H   0  0  0  0  0  0  0  0  0  0  0  0
    6.0224   -5.1724    5.2458 H   0  0  0  0  0  0  0  0  0  0  0  0
    6.8798   -4.2064    3.1018 H   0  0  0  0  0  0  0  0  0  0  0  0
    3.5365    1.0917   -0.6560 H   0  0  0  0  0  0  0  0  0  0  0  0
    2.3420    2.5633    1.3759 H   0  0  0  0  0  0  0  0  0  0  0  0
  1  2  2  0  0  0  0
  2  3  1  0  0  0  0
  2 25  1  0  0  0  0
  3  4  1  0  0  0  0
  3 27  1  0  0  0  0
  3 28  1  0  0  0  0
  4  5  1  0  0  0  0
  4 14  1  0  0  0  0
  5  6  1  0  0  0  0
  5 13  2  0  0  0  0
  6  7  2  0  0  0  0
  6 29  1  0  0  0  0
  7  8  1  0  0  0  0
  7 30  1  0  0  0  0
  8  9  2  0  0  0  0
  8 31  1  0  0  0  0
  9 10  1  0  0  0  0
  9 13  1  0  0  0  0
 10 11  2  0  0  0  0
 10 12  1  0  0  0  0
 13 32  1  0  0  0  0
 14 15  2  0  0  0  0
 14 16  2  0  0  0  0
 14 17  1  0  0  0  0
 17 18  1  0  0  0  0
 17 23  2  0  0  0  0
 18 19  2  0  0  0  0
 18 33  1  0  0  0  0
 19 20  1  0  0  0  0
 19 21  1  0  0  0  0
 21 22  2  0  0  0  0
 21 34  1  0  0  0  0
 22 23  1  0  0  0  0
 22 35  1  0  0  0  0
 23 24  1  0  0  0  0
 25 26  1  0  0  0  0
 25 36  1  0  0  0  0
 26 37  1  0  0  0  0
M  CHG  2  10   1  12  -1
M  END
>  <Line_Number>
125


> <IC50>
16400

$$$$
