168279374.0
 OpenBabel09302502333D

 37 38  0  0  0  0  0  0  0  0999 V2000
    2.4734   -0.9573    0.3425 O   0  0  0  0  0  0  0  0  0  0  0  0
    2.5024   -0.0391   -0.4756 C   0  0  0  0  0  0  0  0  0  0  0  0
    2.9494    1.3642   -0.1033 C   0  0  0  0  0  0  0  0  0  0  0  0
    1.9861    2.4438   -0.4238 N   0  0  0  0  0  0  0  0  0  0  0  0
    0.5781    2.2308   -0.2295 C   0  0  0  0  0  0  0  0  0  0  0  0
    0.0661    1.6922    0.9579 C   0  0  0  0  0  0  0  0  0  0  0  0
   -1.3138    1.5193    1.1119 C   0  0  0  0  0  0  0  0  0  0  0  0
   -2.1881    1.8990    0.0876 C   0  0  0  0  0  0  0  0  0  0  0  0
   -1.6704    2.4584   -1.0832 C   0  0  0  0  0  0  0  0  0  0  0  0
   -2.5830    2.8995   -2.1446 N   0  3  0  0  0  0  0  0  0  0  0  0
   -3.7944    2.9315   -1.8831 O   0  0  0  0  0  0  0  0  0  0  0  0
   -2.0885    3.2162   -3.2340 O   0  5  0  0  0  0  0  0  0  0  0  0
   -0.2913    2.6216   -1.2500 C   0  0  0  0  0  0  0  0  0  0  0  0
    2.5562    4.0451   -0.1823 S   0  0  0  0  0  0  0  0  0  0  0  0
    3.9918    4.0320   -0.3671 O   0  0  0  0  0  0  0  0  0  0  0  0
    1.7220    4.9425   -0.9597 O   0  0  0  0  0  0  0  0  0  0  0  0
    2.2521    4.4174    1.5417 C   0  0  0  0  0  0  0  0  0  0  0  0
    3.2152    4.1053    2.5091 C   0  0  0  0  0  0  0  0  0  0  0  0
    3.0092    4.4857    3.8400 C   0  0  0  0  0  0  0  0  0  0  0  0
    1.8605    5.1954    4.1958 C   0  0  0  0  0  0  0  0  0  0  0  0
    1.6076    5.6537    5.8345 Cl  0  0  0  0  0  0  0  0  0  0  0  0
    0.9214    5.5469    3.2286 C   0  0  0  0  0  0  0  0  0  0  0  0
    1.1198    5.1648    1.8956 C   0  0  0  0  0  0  0  0  0  0  0  0
    2.2187   -0.2107   -1.8124 N   0  0  0  0  0  0  0  0  0  0  0  0
    1.7154   -1.4708   -2.2001 O   0  0  0  0  0  0  0  0  0  0  0  0
    3.8681    1.5327   -0.6804 H   0  0  0  0  0  0  0  0  0  0  0  0
    3.2087    1.3788    0.9593 H   0  0  0  0  0  0  0  0  0  0  0  0
    0.7262    1.4047    1.7741 H   0  0  0  0  0  0  0  0  0  0  0  0
   -1.7052    1.0872    2.0292 H   0  0  0  0  0  0  0  0  0  0  0  0
   -3.2565    1.7547    0.2261 H   0  0  0  0  0  0  0  0  0  0  0  0
    0.1114    3.0529   -2.1650 H   0  0  0  0  0  0  0  0  0  0  0  0
    4.1375    3.5963    2.2384 H   0  0  0  0  0  0  0  0  0  0  0  0
    3.7552    4.2475    4.5955 H   0  0  0  0  0  0  0  0  0  0  0  0
    0.0484    6.1368    3.4965 H   0  0  0  0  0  0  0  0  0  0  0  0
    0.3995    5.4784    1.1413 H   0  0  0  0  0  0  0  0  0  0  0  0
    1.9963    0.5710   -2.4220 H   0  0  0  0  0  0  0  0  0  0  0  0
    2.3684   -2.0911   -1.8166 H   0  0  0  0  0  0  0  0  0  0  0  0
  1  2  2  0  0  0  0
  2  3  1  0  0  0  0
  2 24  1  0  0  0  0
  3  4  1  0  0  0  0
  3 26  1  0  0  0  0
  3 27  1  0  0  0  0
  4  5  1  0  0  0  0
  4 14  1  0  0  0  0
  5  6  1  0  0  0  0
  5 13  2  0  0  0  0
  6  7  2  0  0  0  0
  6 28  1  0  0  0  0
  7  8  1  0  0  0  0
  7 29  1  0  0  0  0
  8  9  2  0  0  0  0
  8 30  1  0  0  0  0
  9 10  1  0  0  0  0
  9 13  1  0  0  0  0
 10 11  2  0  0  0  0
 10 12  1  0  0  0  0
 13 31  1  0  0  0  0
 14 15  2  0  0  0  0
 14 16  2  0  0  0  0
 14 17  1  0  0  0  0
 17 18  1  0  0  0  0
 17 23  2  0  0  0  0
 18 19  2  0  0  0  0
 18 32  1  0  0  0  0
 19 20  1  0  0  0  0
 19 33  1  0  0  0  0
 20 21  1  0  0  0  0
 20 22  2  0  0  0  0
 22 23  1  0  0  0  0
 22 34  1  0  0  0  0
 23 35  1  0  0  0  0
 24 25  1  0  0  0  0
 24 36  1  0  0  0  0
 25 37  1  0  0  0  0
M  CHG  2  10   1  12  -1
M  END
>  <Line_Number>
126


> <IC50>
1750

$$$$
