168294924.0
 OpenBabel09302502333D

 40 41  0  0  0  0  0  0  0  0999 V2000
   -1.0879   -0.9197    5.5265 C   0  0  0  0  0  0  0  0  0  0  0  0
   -1.6968   -0.7241    4.1663 C   0  0  0  0  0  0  0  0  0  0  0  0
   -2.9980   -0.2258    4.0300 C   0  0  0  0  0  0  0  0  0  0  0  0
   -3.5639   -0.0334    2.7652 C   0  0  0  0  0  0  0  0  0  0  0  0
   -2.8172   -0.3118    1.6214 C   0  0  0  0  0  0  0  0  0  0  0  0
   -3.5259   -0.0492   -0.0020 S   0  0  0  0  0  0  0  0  0  0  0  0
   -2.4116   -0.0225   -0.9329 O   0  0  0  0  0  0  0  0  0  0  0  0
   -4.5909   -1.0147   -0.1434 O   0  0  0  0  0  0  0  0  0  0  0  0
   -4.1685    1.5136    0.0152 N   0  0  0  0  0  0  0  0  0  0  0  0
   -3.2785    2.6826   -0.0691 C   0  0  0  0  0  0  0  0  0  0  0  0
   -2.8607    3.2503    1.2775 C   0  0  0  0  0  0  0  0  0  0  0  0
   -3.5029    3.0891    2.3127 O   0  0  0  0  0  0  0  0  0  0  0  0
   -1.7448    4.0683    1.1875 N   0  0  0  0  0  0  0  0  0  0  0  0
   -1.2542    4.5367    2.4286 O   0  0  0  0  0  0  0  0  0  0  0  0
   -5.5805    1.7213   -0.0873 C   0  0  0  0  0  0  0  0  0  0  0  0
   -6.2944    2.0763    1.0596 C   0  0  0  0  0  0  0  0  0  0  0  0
   -7.6457    2.4142    0.9872 C   0  0  0  0  0  0  0  0  0  0  0  0
   -8.2937    2.4260   -0.2448 C   0  0  0  0  0  0  0  0  0  0  0  0
   -7.5812    2.0867   -1.4024 C   0  0  0  0  0  0  0  0  0  0  0  0
   -8.2572    2.1641   -2.7037 N   0  3  0  0  0  0  0  0  0  0  0  0
   -9.4374    2.5461   -2.7175 O   0  0  0  0  0  0  0  0  0  0  0  0
   -7.6020    1.8715   -3.7138 O   0  5  0  0  0  0  0  0  0  0  0  0
   -6.2205    1.7248   -1.3319 C   0  0  0  0  0  0  0  0  0  0  0  0
   -1.5264   -0.8395    1.7421 C   0  0  0  0  0  0  0  0  0  0  0  0
   -0.9746   -1.0547    3.0120 C   0  0  0  0  0  0  0  0  0  0  0  0
   -1.7278   -0.5063    6.3142 H   0  0  0  0  0  0  0  0  0  0  0  0
   -0.1219   -0.4072    5.5891 H   0  0  0  0  0  0  0  0  0  0  0  0
   -0.9437   -1.9849    5.7333 H   0  0  0  0  0  0  0  0  0  0  0  0
   -3.5823    0.0244    4.9138 H   0  0  0  0  0  0  0  0  0  0  0  0
   -4.5814    0.3318    2.6938 H   0  0  0  0  0  0  0  0  0  0  0  0
   -3.7880    3.4938   -0.6072 H   0  0  0  0  0  0  0  0  0  0  0  0
   -2.3890    2.4496   -0.6635 H   0  0  0  0  0  0  0  0  0  0  0  0
   -1.0234    3.8606    0.5028 H   0  0  0  0  0  0  0  0  0  0  0  0
   -1.7644    5.3595    2.5564 H   0  0  0  0  0  0  0  0  0  0  0  0
   -5.7982    2.1166    2.0250 H   0  0  0  0  0  0  0  0  0  0  0  0
   -8.1828    2.6894    1.8919 H   0  0  0  0  0  0  0  0  0  0  0  0
   -9.3421    2.7154   -0.2869 H   0  0  0  0  0  0  0  0  0  0  0  0
   -5.6636    1.4752   -2.2324 H   0  0  0  0  0  0  0  0  0  0  0  0
   -0.9477   -1.1090    0.8615 H   0  0  0  0  0  0  0  0  0  0  0  0
    0.0236   -1.4812    3.0981 H   0  0  0  0  0  0  0  0  0  0  0  0
  1  2  1  0  0  0  0
  1 26  1  0  0  0  0
  1 27  1  0  0  0  0
  1 28  1  0  0  0  0
  2  3  1  0  0  0  0
  2 25  2  0  0  0  0
  3  4  2  0  0  0  0
  3 29  1  0  0  0  0
  4  5  1  0  0  0  0
  4 30  1  0  0  0  0
  5  6  1  0  0  0  0
  5 24  2  0  0  0  0
  6  7  2  0  0  0  0
  6  8  2  0  0  0  0
  6  9  1  0  0  0  0
  9 10  1  0  0  0  0
  9 15  1  0  0  0  0
 10 11  1  0  0  0  0
 10 31  1  0  0  0  0
 10 32  1  0  0  0  0
 11 12  2  0  0  0  0
 11 13  1  0  0  0  0
 13 14  1  0  0  0  0
 13 33  1  0  0  0  0
 14 34  1  0  0  0  0
 15 16  1  0  0  0  0
 15 23  2  0  0  0  0
 16 17  2  0  0  0  0
 16 35  1  0  0  0  0
 17 18  1  0  0  0  0
 17 36  1  0  0  0  0
 18 19  2  0  0  0  0
 18 37  1  0  0  0  0
 19 20  1  0  0  0  0
 19 23  1  0  0  0  0
 20 21  2  0  0  0  0
 20 22  1  0  0  0  0
 23 38  1  0  0  0  0
 24 25  1  0  0  0  0
 24 39  1  0  0  0  0
 25 40  1  0  0  0  0
M  CHG  2  20   1  22  -1
M  END
>  <Line_Number>
127


> <IC50>
5910

$$$$
