168297531.0
 OpenBabel09302502333D

 37 38  0  0  0  0  0  0  0  0999 V2000
    2.9323   -0.2250   -1.3515 O   0  0  0  0  0  0  0  0  0  0  0  0
    2.6094    0.8151   -0.7793 C   0  0  0  0  0  0  0  0  0  0  0  0
    2.8523    1.0424    0.7023 C   0  0  0  0  0  0  0  0  0  0  0  0
    1.9168    2.0348    1.3139 N   0  0  0  0  0  0  0  0  0  0  0  0
    0.5222    1.6741    1.3952 C   0  0  0  0  0  0  0  0  0  0  0  0
    0.0687    0.4714    1.9467 C   0  0  0  0  0  0  0  0  0  0  0  0
   -1.3018    0.1843    1.9757 C   0  0  0  0  0  0  0  0  0  0  0  0
   -2.2291    1.1119    1.4918 C   0  0  0  0  0  0  0  0  0  0  0  0
   -1.7723    2.3393    1.0025 C   0  0  0  0  0  0  0  0  0  0  0  0
   -2.7304    3.3497    0.5381 N   0  3  0  0  0  0  0  0  0  0  0  0
   -3.9341    3.1029    0.6595 O   0  0  0  0  0  0  0  0  0  0  0  0
   -2.2686    4.3939    0.0460 O   0  5  0  0  0  0  0  0  0  0  0  0
   -0.4038    2.6229    0.9529 C   0  0  0  0  0  0  0  0  0  0  0  0
    2.5391    2.7999    2.7258 S   0  0  0  0  0  0  0  0  0  0  0  0
    1.4936    3.5734    3.3559 O   0  0  0  0  0  0  0  0  0  0  0  0
    3.3057    1.8093    3.4530 O   0  0  0  0  0  0  0  0  0  0  0  0
    3.6740    3.9818    2.0219 C   0  0  0  0  0  0  0  0  0  0  0  0
    3.1728    4.9557    1.1496 C   0  0  0  0  0  0  0  0  0  0  0  0
    4.0368    5.9022    0.6051 C   0  0  0  0  0  0  0  0  0  0  0  0
    5.3913    5.8878    0.9363 C   0  0  0  0  0  0  0  0  0  0  0  0
    5.8846    4.9264    1.8229 C   0  0  0  0  0  0  0  0  0  0  0  0
    5.0275    3.9685    2.3687 C   0  0  0  0  0  0  0  0  0  0  0  0
    2.1046    1.9016   -1.4480 N   0  0  0  0  0  0  0  0  0  0  0  0
    1.8238    1.7649   -2.8208 O   0  0  0  0  0  0  0  0  0  0  0  0
    3.8843    1.4030    0.7761 H   0  0  0  0  0  0  0  0  0  0  0  0
    2.7887    0.0810    1.2233 H   0  0  0  0  0  0  0  0  0  0  0  0
    0.7639   -0.2552    2.3608 H   0  0  0  0  0  0  0  0  0  0  0  0
   -1.6510   -0.7632    2.3837 H   0  0  0  0  0  0  0  0  0  0  0  0
   -3.2910    0.8705    1.5189 H   0  0  0  0  0  0  0  0  0  0  0  0
   -0.0533    3.5795    0.5768 H   0  0  0  0  0  0  0  0  0  0  0  0
    2.1133    4.9961    0.9099 H   0  0  0  0  0  0  0  0  0  0  0  0
    3.6523    6.6668   -0.0715 H   0  0  0  0  0  0  0  0  0  0  0  0
    6.0621    6.6330    0.5147 H   0  0  0  0  0  0  0  0  0  0  0  0
    6.9380    4.9375    2.0958 H   0  0  0  0  0  0  0  0  0  0  0  0
    5.4201    3.2375    3.0732 H   0  0  0  0  0  0  0  0  0  0  0  0
    1.7055    2.7011   -0.9691 H   0  0  0  0  0  0  0  0  0  0  0  0
    2.5522    1.1891   -3.1322 H   0  0  0  0  0  0  0  0  0  0  0  0
  1  2  2  0  0  0  0
  2  3  1  0  0  0  0
  2 23  1  0  0  0  0
  3  4  1  0  0  0  0
  3 25  1  0  0  0  0
  3 26  1  0  0  0  0
  4  5  1  0  0  0  0
  4 14  1  0  0  0  0
  5  6  1  0  0  0  0
  5 13  2  0  0  0  0
  6  7  2  0  0  0  0
  6 27  1  0  0  0  0
  7  8  1  0  0  0  0
  7 28  1  0  0  0  0
  8  9  2  0  0  0  0
  8 29  1  0  0  0  0
  9 10  1  0  0  0  0
  9 13  1  0  0  0  0
 10 11  2  0  0  0  0
 10 12  1  0  0  0  0
 13 30  1  0  0  0  0
 14 15  2  0  0  0  0
 14 16  2  0  0  0  0
 14 17  1  0  0  0  0
 17 18  1  0  0  0  0
 17 22  2  0  0  0  0
 18 19  2  0  0  0  0
 18 31  1  0  0  0  0
 19 20  1  0  0  0  0
 19 32  1  0  0  0  0
 20 21  2  0  0  0  0
 20 33  1  0  0  0  0
 21 22  1  0  0  0  0
 21 34  1  0  0  0  0
 22 35  1  0  0  0  0
 23 24  1  0  0  0  0
 23 36  1  0  0  0  0
 24 37  1  0  0  0  0
M  CHG  2  10   1  12  -1
M  END
>  <Line_Number>
128


> <IC50>
2410

$$$$
