168277224.0
 OpenBabel09302502333D

 37 38  0  0  0  0  0  0  0  0999 V2000
    1.9645    1.6704    0.9642 O   0  0  0  0  0  0  0  0  0  0  0  0
    2.6096    0.7447    0.4739 C   0  0  0  0  0  0  0  0  0  0  0  0
    2.8911   -0.5658    1.1889 C   0  0  0  0  0  0  0  0  0  0  0  0
    1.9278   -0.8752    2.2811 N   0  0  0  0  0  0  0  0  0  0  0  0
    0.5773   -1.1808    1.8769 C   0  0  0  0  0  0  0  0  0  0  0  0
   -0.4649   -0.4988    2.5151 C   0  0  0  0  0  0  0  0  0  0  0  0
   -1.7982   -0.7609    2.1849 C   0  0  0  0  0  0  0  0  0  0  0  0
   -2.1000   -1.7012    1.2021 C   0  0  0  0  0  0  0  0  0  0  0  0
   -1.0573   -2.3897    0.5688 C   0  0  0  0  0  0  0  0  0  0  0  0
   -1.3677   -3.3327   -0.5130 N   0  3  0  0  0  0  0  0  0  0  0  0
   -2.5524   -3.4463   -0.8584 O   0  0  0  0  0  0  0  0  0  0  0  0
   -0.4231   -3.9439   -1.0333 O   0  5  0  0  0  0  0  0  0  0  0  0
    0.2809   -2.1615    0.9247 C   0  0  0  0  0  0  0  0  0  0  0  0
    2.5630   -1.9105    3.4848 S   0  0  0  0  0  0  0  0  0  0  0  0
    1.5243   -2.3083    4.4084 O   0  0  0  0  0  0  0  0  0  0  0  0
    3.3610   -2.9078    2.8007 O   0  0  0  0  0  0  0  0  0  0  0  0
    3.6729   -0.8660    4.3852 C   0  0  0  0  0  0  0  0  0  0  0  0
    5.0313   -1.1859    4.4902 C   0  0  0  0  0  0  0  0  0  0  0  0
    5.8673   -0.3913    5.2798 C   0  0  0  0  0  0  0  0  0  0  0  0
    5.3467    0.7149    5.9583 C   0  0  0  0  0  0  0  0  0  0  0  0
    3.9932    1.0333    5.8372 C   0  0  0  0  0  0  0  0  0  0  0  0
    3.1610    0.2386    5.0507 C   0  0  0  0  0  0  0  0  0  0  0  0
    1.8658    0.5661    4.9628 F   0  0  0  0  0  0  0  0  0  0  0  0
    3.2117    0.9070   -0.7499 N   0  0  0  0  0  0  0  0  0  0  0  0
    3.6743   -0.2346   -1.4295 O   0  0  0  0  0  0  0  0  0  0  0  0
    3.9066   -0.4611    1.5962 H   0  0  0  0  0  0  0  0  0  0  0  0
    2.9084   -1.3937    0.4764 H   0  0  0  0  0  0  0  0  0  0  0  0
   -0.2380    0.2490    3.2714 H   0  0  0  0  0  0  0  0  0  0  0  0
   -2.5960   -0.2218    2.6902 H   0  0  0  0  0  0  0  0  0  0  0  0
   -3.1407   -1.8813    0.9416 H   0  0  0  0  0  0  0  0  0  0  0  0
    1.0799   -2.7312    0.4588 H   0  0  0  0  0  0  0  0  0  0  0  0
    5.4440   -2.0599    3.9883 H   0  0  0  0  0  0  0  0  0  0  0  0
    6.9211   -0.6403    5.3843 H   0  0  0  0  0  0  0  0  0  0  0  0
    5.9936    1.3226    6.5888 H   0  0  0  0  0  0  0  0  0  0  0  0
    3.5782    1.8877    6.3616 H   0  0  0  0  0  0  0  0  0  0  0  0
    2.8652    1.6741   -1.3215 H   0  0  0  0  0  0  0  0  0  0  0  0
    4.6404   -0.1886   -1.2919 H   0  0  0  0  0  0  0  0  0  0  0  0
  1  2  2  0  0  0  0
  2  3  1  0  0  0  0
  2 24  1  0  0  0  0
  3  4  1  0  0  0  0
  3 26  1  0  0  0  0
  3 27  1  0  0  0  0
  4  5  1  0  0  0  0
  4 14  1  0  0  0  0
  5  6  1  0  0  0  0
  5 13  2  0  0  0  0
  6  7  2  0  0  0  0
  6 28  1  0  0  0  0
  7  8  1  0  0  0  0
  7 29  1  0  0  0  0
  8  9  2  0  0  0  0
  8 30  1  0  0  0  0
  9 10  1  0  0  0  0
  9 13  1  0  0  0  0
 10 11  2  0  0  0  0
 10 12  1  0  0  0  0
 13 31  1  0  0  0  0
 14 15  2  0  0  0  0
 14 16  2  0  0  0  0
 14 17  1  0  0  0  0
 17 18  1  0  0  0  0
 17 22  2  0  0  0  0
 18 19  2  0  0  0  0
 18 32  1  0  0  0  0
 19 20  1  0  0  0  0
 19 33  1  0  0  0  0
 20 21  2  0  0  0  0
 20 34  1  0  0  0  0
 21 22  1  0  0  0  0
 21 35  1  0  0  0  0
 22 23  1  0  0  0  0
 24 25  1  0  0  0  0
 24 36  1  0  0  0  0
 25 37  1  0  0  0  0
M  CHG  2  10   1  12  -1
M  END
>  <Line_Number>
129


> <IC50>
6900

$$$$
