50908655.0
 OpenBabel09302502333D

 31 32  0  0  0  0  0  0  0  0999 V2000
    2.3133   -0.1527    0.3025 O   0  0  0  0  0  0  0  0  0  0  0  0
    0.9551   -0.1157    0.1839 C   0  0  0  0  0  0  0  0  0  0  0  0
    0.3343   -0.0992   -1.0608 C   0  0  0  0  0  0  0  0  0  0  0  0
   -1.0614   -0.0494   -1.1336 C   0  0  0  0  0  0  0  0  0  0  0  0
   -1.8375   -0.0087    0.0352 C   0  0  0  0  0  0  0  0  0  0  0  0
   -3.3455    0.0660   -0.0424 C   0  0  0  0  0  0  0  0  0  0  0  0
   -4.0020   -1.3180   -0.0338 C   0  0  0  0  0  0  0  0  0  0  0  0
   -5.5104   -1.2387   -0.1135 C   0  0  0  0  0  0  0  0  0  0  0  0
   -6.2909   -1.1968    1.0550 C   0  0  0  0  0  0  0  0  0  0  0  0
   -7.6876   -1.1307    0.9835 C   0  0  0  0  0  0  0  0  0  0  0  0
   -8.3029   -1.1020   -0.2618 C   0  0  0  0  0  0  0  0  0  0  0  0
   -9.6625   -1.0429   -0.3988 O   0  0  0  0  0  0  0  0  0  0  0  0
   -7.5362   -1.1349   -1.4233 C   0  0  0  0  0  0  0  0  0  0  0  0
   -8.1492   -1.1079   -2.6442 O   0  0  0  0  0  0  0  0  0  0  0  0
   -6.1504   -1.1977   -1.3618 C   0  0  0  0  0  0  0  0  0  0  0  0
   -1.1902   -0.0407    1.2788 C   0  0  0  0  0  0  0  0  0  0  0  0
    0.2033   -0.0915    1.3515 C   0  0  0  0  0  0  0  0  0  0  0  0
    2.7022   -0.1379   -0.5872 H   0  0  0  0  0  0  0  0  0  0  0  0
    0.9136   -0.1205   -1.9785 H   0  0  0  0  0  0  0  0  0  0  0  0
   -1.5404   -0.0327   -2.1100 H   0  0  0  0  0  0  0  0  0  0  0  0
   -3.6323    0.6189   -0.9466 H   0  0  0  0  0  0  0  0  0  0  0  0
   -3.7167    0.6678    0.7977 H   0  0  0  0  0  0  0  0  0  0  0  0
   -3.7174   -1.8705    0.8712 H   0  0  0  0  0  0  0  0  0  0  0  0
   -3.6306   -1.9205   -0.8733 H   0  0  0  0  0  0  0  0  0  0  0  0
   -5.8121   -1.2225    2.0322 H   0  0  0  0  0  0  0  0  0  0  0  0
   -8.2677   -1.1083    1.9005 H   0  0  0  0  0  0  0  0  0  0  0  0
  -10.0550   -1.0185    0.4906 H   0  0  0  0  0  0  0  0  0  0  0  0
   -9.1042   -1.0798   -2.4354 H   0  0  0  0  0  0  0  0  0  0  0  0
   -5.5774   -1.2241   -2.2836 H   0  0  0  0  0  0  0  0  0  0  0  0
   -1.7670   -0.0163    2.2006 H   0  0  0  0  0  0  0  0  0  0  0  0
    0.7012   -0.1062    2.3169 H   0  0  0  0  0  0  0  0  0  0  0  0
  1  2  1  0  0  0  0
  1 18  1  0  0  0  0
  2  3  1  0  0  0  0
  2 17  2  0  0  0  0
  3  4  2  0  0  0  0
  3 19  1  0  0  0  0
  4  5  1  0  0  0  0
  4 20  1  0  0  0  0
  5  6  1  0  0  0  0
  5 16  2  0  0  0  0
  6  7  1  0  0  0  0
  6 21  1  0  0  0  0
  6 22  1  0  0  0  0
  7  8  1  0  0  0  0
  7 23  1  0  0  0  0
  7 24  1  0  0  0  0
  8  9  1  0  0  0  0
  8 15  2  0  0  0  0
  9 10  2  0  0  0  0
  9 25  1  0  0  0  0
 10 11  1  0  0  0  0
 10 26  1  0  0  0  0
 11 12  1  0  0  0  0
 11 13  2  0  0  0  0
 12 27  1  0  0  0  0
 13 14  1  0  0  0  0
 13 15  1  0  0  0  0
 14 28  1  0  0  0  0
 15 29  1  0  0  0  0
 16 17  1  0  0  0  0
 16 30  1  0  0  0  0
 17 31  1  0  0  0  0
M  END
>  <Line_Number>
12


> <IC50>
2850

$$$$
