168296539.0
 OpenBabel09302502333D

 37 38  0  0  0  0  0  0  0  0999 V2000
    3.0411    0.4114    1.2614 O   0  0  0  0  0  0  0  0  0  0  0  0
    2.7240   -0.6742    0.7769 C   0  0  0  0  0  0  0  0  0  0  0  0
    2.9330   -0.9986   -0.6926 C   0  0  0  0  0  0  0  0  0  0  0  0
    1.9849   -2.0345   -1.2112 N   0  0  0  0  0  0  0  0  0  0  0  0
    0.5871   -1.6813   -1.2874 C   0  0  0  0  0  0  0  0  0  0  0  0
    0.1291   -0.5017   -1.8808 C   0  0  0  0  0  0  0  0  0  0  0  0
   -1.2443   -0.2318   -1.9368 C   0  0  0  0  0  0  0  0  0  0  0  0
   -2.1659   -1.1528   -1.4344 C   0  0  0  0  0  0  0  0  0  0  0  0
   -1.7027   -2.3562   -0.8917 C   0  0  0  0  0  0  0  0  0  0  0  0
   -2.6555   -3.3568   -0.3982 N   0  3  0  0  0  0  0  0  0  0  0  0
   -3.8630   -3.1274   -0.5498 O   0  0  0  0  0  0  0  0  0  0  0  0
   -2.1926   -4.3702    0.1455 O   0  5  0  0  0  0  0  0  0  0  0  0
   -0.3314   -2.6234   -0.8182 C   0  0  0  0  0  0  0  0  0  0  0  0
    2.5685   -2.8801   -2.5948 S   0  0  0  0  0  0  0  0  0  0  0  0
    1.5256   -3.7309   -3.1221 O   0  0  0  0  0  0  0  0  0  0  0  0
    3.2787   -1.9286   -3.4237 O   0  0  0  0  0  0  0  0  0  0  0  0
    3.7596   -3.9719   -1.8460 C   0  0  0  0  0  0  0  0  0  0  0  0
    5.1054   -3.9318   -2.2232 C   0  0  0  0  0  0  0  0  0  0  0  0
    6.0176   -4.7848   -1.5962 C   0  0  0  0  0  0  0  0  0  0  0  0
    5.5827   -5.6646   -0.6027 C   0  0  0  0  0  0  0  0  0  0  0  0
    4.2362   -5.7016   -0.2547 C   0  0  0  0  0  0  0  0  0  0  0  0
    3.8226   -6.5497    0.6949 F   0  0  0  0  0  0  0  0  0  0  0  0
    3.3136   -4.8691   -0.8712 C   0  0  0  0  0  0  0  0  0  0  0  0
    2.2643   -1.7308    1.5295 N   0  0  0  0  0  0  0  0  0  0  0  0
    1.9129   -1.4469    2.8657 O   0  0  0  0  0  0  0  0  0  0  0  0
    3.9648   -1.3588   -0.7690 H   0  0  0  0  0  0  0  0  0  0  0  0
    2.8531   -0.0742   -1.2741 H   0  0  0  0  0  0  0  0  0  0  0  0
    0.8187    0.2185   -2.3137 H   0  0  0  0  0  0  0  0  0  0  0  0
   -1.5979    0.6967   -2.3825 H   0  0  0  0  0  0  0  0  0  0  0  0
   -3.2298   -0.9270   -1.4843 H   0  0  0  0  0  0  0  0  0  0  0  0
    0.0250   -3.5644   -0.4074 H   0  0  0  0  0  0  0  0  0  0  0  0
    5.4498   -3.2536   -3.0016 H   0  0  0  0  0  0  0  0  0  0  0  0
    7.0673   -4.7684   -1.8820 H   0  0  0  0  0  0  0  0  0  0  0  0
    6.2826   -6.3280   -0.1026 H   0  0  0  0  0  0  0  0  0  0  0  0
    2.2664   -4.9363   -0.5945 H   0  0  0  0  0  0  0  0  0  0  0  0
    1.7655   -2.4968    1.0896 H   0  0  0  0  0  0  0  0  0  0  0  0
    2.7426   -1.0773    3.2280 H   0  0  0  0  0  0  0  0  0  0  0  0
  1  2  2  0  0  0  0
  2  3  1  0  0  0  0
  2 24  1  0  0  0  0
  3  4  1  0  0  0  0
  3 26  1  0  0  0  0
  3 27  1  0  0  0  0
  4  5  1  0  0  0  0
  4 14  1  0  0  0  0
  5  6  1  0  0  0  0
  5 13  2  0  0  0  0
  6  7  2  0  0  0  0
  6 28  1  0  0  0  0
  7  8  1  0  0  0  0
  7 29  1  0  0  0  0
  8  9  2  0  0  0  0
  8 30  1  0  0  0  0
  9 10  1  0  0  0  0
  9 13  1  0  0  0  0
 10 11  2  0  0  0  0
 10 12  1  0  0  0  0
 13 31  1  0  0  0  0
 14 15  2  0  0  0  0
 14 16  2  0  0  0  0
 14 17  1  0  0  0  0
 17 18  1  0  0  0  0
 17 23  2  0  0  0  0
 18 19  2  0  0  0  0
 18 32  1  0  0  0  0
 19 20  1  0  0  0  0
 19 33  1  0  0  0  0
 20 21  2  0  0  0  0
 20 34  1  0  0  0  0
 21 22  1  0  0  0  0
 21 23  1  0  0  0  0
 23 35  1  0  0  0  0
 24 25  1  0  0  0  0
 24 36  1  0  0  0  0
 25 37  1  0  0  0  0
M  CHG  2  10   1  12  -1
M  END
>  <Line_Number>
130


> <IC50>
740

$$$$
