168289003.0
 OpenBabel09302502333D

 46 47  0  0  0  0  0  0  0  0999 V2000
    1.7178    2.3484    0.1436 C   0  0  0  0  0  0  0  0  0  0  0  0
    0.7387    1.2240    0.3045 C   0  0  0  0  0  0  0  0  0  0  0  0
    1.1713   -0.0932    0.4751 C   0  0  0  0  0  0  0  0  0  0  0  0
    0.2652   -1.1722    0.5794 C   0  0  0  0  0  0  0  0  0  0  0  0
    0.8589   -2.5145    0.8962 C   0  0  0  0  0  0  0  0  0  0  0  0
   -1.1123   -0.9085    0.4437 C   0  0  0  0  0  0  0  0  0  0  0  0
   -2.3747   -2.1734    0.2831 S   0  0  0  0  0  0  0  0  0  0  0  0
   -3.0780   -2.1457    1.5535 O   0  0  0  0  0  0  0  0  0  0  0  0
   -3.0723   -1.9050   -0.9591 O   0  0  0  0  0  0  0  0  0  0  0  0
   -1.6788   -3.7492    0.0924 N   0  0  0  0  0  0  0  0  0  0  0  0
   -1.2709   -4.0696   -1.3163 C   0  0  0  0  0  0  0  0  0  0  0  0
   -0.5723   -5.4210   -1.4666 C   0  0  0  0  0  0  0  0  0  0  0  0
    0.2271   -5.8867   -0.6538 O   0  0  0  0  0  0  0  0  0  0  0  0
   -0.8693   -6.0847   -2.6361 N   0  0  0  0  0  0  0  0  0  0  0  0
   -0.2339   -7.3264   -2.8594 O   0  0  0  0  0  0  0  0  0  0  0  0
   -2.5171   -4.7467    0.7340 C   0  0  0  0  0  0  0  0  0  0  0  0
   -2.2057   -5.1174    2.0427 C   0  0  0  0  0  0  0  0  0  0  0  0
   -3.0794   -5.9182    2.7806 C   0  0  0  0  0  0  0  0  0  0  0  0
   -4.2795   -6.3456    2.2137 C   0  0  0  0  0  0  0  0  0  0  0  0
   -4.5962   -5.9625    0.9042 C   0  0  0  0  0  0  0  0  0  0  0  0
   -5.8766   -6.3641    0.3164 N   0  3  0  0  0  0  0  0  0  0  0  0
   -6.6840   -6.9653    1.0389 O   0  0  0  0  0  0  0  0  0  0  0  0
   -6.0755   -6.0837   -0.8768 O   0  5  0  0  0  0  0  0  0  0  0  0
   -3.7221   -5.1627    0.1581 C   0  0  0  0  0  0  0  0  0  0  0  0
   -1.5646    0.4416    0.4359 C   0  0  0  0  0  0  0  0  0  0  0  0
   -3.0003    0.8766    0.6244 C   0  0  0  0  0  0  0  0  0  0  0  0
   -0.6264    1.4857    0.3604 C   0  0  0  0  0  0  0  0  0  0  0  0
    2.6358    1.9959   -0.3391 H   0  0  0  0  0  0  0  0  0  0  0  0
    1.9691    2.7854    1.1140 H   0  0  0  0  0  0  0  0  0  0  0  0
    1.3001    3.1297   -0.5012 H   0  0  0  0  0  0  0  0  0  0  0  0
    2.2432   -0.2821    0.5400 H   0  0  0  0  0  0  0  0  0  0  0  0
    1.8977   -2.4168    1.2333 H   0  0  0  0  0  0  0  0  0  0  0  0
    0.8813   -3.1559    0.0169 H   0  0  0  0  0  0  0  0  0  0  0  0
    0.3198   -2.9882    1.7210 H   0  0  0  0  0  0  0  0  0  0  0  0
   -0.5639   -3.3175   -1.6813 H   0  0  0  0  0  0  0  0  0  0  0  0
   -2.1424   -4.0553   -1.9777 H   0  0  0  0  0  0  0  0  0  0  0  0
   -1.5784   -5.8134   -3.3111 H   0  0  0  0  0  0  0  0  0  0  0  0
    0.4208   -7.3720   -2.1296 H   0  0  0  0  0  0  0  0  0  0  0  0
   -1.2942   -4.7502    2.5113 H   0  0  0  0  0  0  0  0  0  0  0  0
   -2.8364   -6.1800    3.8092 H   0  0  0  0  0  0  0  0  0  0  0  0
   -4.9634   -6.9501    2.8086 H   0  0  0  0  0  0  0  0  0  0  0  0
   -4.0065   -4.8170   -0.8322 H   0  0  0  0  0  0  0  0  0  0  0  0
   -3.7412    0.0839    0.5341 H   0  0  0  0  0  0  0  0  0  0  0  0
   -3.2646    1.6420   -0.1130 H   0  0  0  0  0  0  0  0  0  0  0  0
   -3.1116    1.3086    1.6272 H   0  0  0  0  0  0  0  0  0  0  0  0
   -0.9735    2.5193    0.3437 H   0  0  0  0  0  0  0  0  0  0  0  0
  1  2  1  0  0  0  0
  1 28  1  0  0  0  0
  1 29  1  0  0  0  0
  1 30  1  0  0  0  0
  2  3  1  0  0  0  0
  2 27  2  0  0  0  0
  3  4  2  0  0  0  0
  3 31  1  0  0  0  0
  4  5  1  0  0  0  0
  4  6  1  0  0  0  0
  5 32  1  0  0  0  0
  5 33  1  0  0  0  0
  5 34  1  0  0  0  0
  6  7  1  0  0  0  0
  6 25  2  0  0  0  0
  7  8  2  0  0  0  0
  7  9  2  0  0  0  0
  7 10  1  0  0  0  0
 10 11  1  0  0  0  0
 10 16  1  0  0  0  0
 11 12  1  0  0  0  0
 11 35  1  0  0  0  0
 11 36  1  0  0  0  0
 12 13  2  0  0  0  0
 12 14  1  0  0  0  0
 14 15  1  0  0  0  0
 14 37  1  0  0  0  0
 15 38  1  0  0  0  0
 16 17  1  0  0  0  0
 16 24  2  0  0  0  0
 17 18  2  0  0  0  0
 17 39  1  0  0  0  0
 18 19  1  0  0  0  0
 18 40  1  0  0  0  0
 19 20  2  0  0  0  0
 19 41  1  0  0  0  0
 20 21  1  0  0  0  0
 20 24  1  0  0  0  0
 21 22  2  0  0  0  0
 21 23  1  0  0  0  0
 24 42  1  0  0  0  0
 25 26  1  0  0  0  0
 25 27  1  0  0  0  0
 26 43  1  0  0  0  0
 26 44  1  0  0  0  0
 26 45  1  0  0  0  0
 27 46  1  0  0  0  0
M  CHG  2  21   1  23  -1
M  END
>  <Line_Number>
131


> <IC50>
96400

$$$$
