168295164.0
 OpenBabel09302502333D

 40 41  0  0  0  0  0  0  0  0999 V2000
    2.3254   -0.0994    1.1131 O   0  0  0  0  0  0  0  0  0  0  0  0
    2.3226   -0.2862   -0.1025 C   0  0  0  0  0  0  0  0  0  0  0  0
    2.8563    0.7511   -1.0792 C   0  0  0  0  0  0  0  0  0  0  0  0
    1.8880    1.1485   -2.1280 N   0  0  0  0  0  0  0  0  0  0  0  0
    0.5171    1.3710   -1.7562 C   0  0  0  0  0  0  0  0  0  0  0  0
   -0.4848    0.7004   -2.4599 C   0  0  0  0  0  0  0  0  0  0  0  0
   -1.8264    0.8452   -2.0980 C   0  0  0  0  0  0  0  0  0  0  0  0
   -2.1698    1.6747   -1.0320 C   0  0  0  0  0  0  0  0  0  0  0  0
   -1.1633    2.3639   -0.3427 C   0  0  0  0  0  0  0  0  0  0  0  0
   -1.5161    3.2276    0.7909 N   0  3  0  0  0  0  0  0  0  0  0  0
   -2.6933    3.2226    1.1748 O   0  0  0  0  0  0  0  0  0  0  0  0
   -0.6132    3.9144    1.2908 O   0  5  0  0  0  0  0  0  0  0  0  0
    0.1821    2.2316   -0.7092 C   0  0  0  0  0  0  0  0  0  0  0  0
    2.5156    2.1535   -3.3675 S   0  0  0  0  0  0  0  0  0  0  0  0
    3.9099    1.7993   -3.5488 O   0  0  0  0  0  0  0  0  0  0  0  0
    1.5984    2.1170   -4.4867 O   0  0  0  0  0  0  0  0  0  0  0  0
    2.4841    3.8291   -2.7216 C   0  0  0  0  0  0  0  0  0  0  0  0
    3.6105    4.3593   -2.0851 C   0  0  0  0  0  0  0  0  0  0  0  0
    3.6576    5.7275   -1.7792 C   0  0  0  0  0  0  0  0  0  0  0  0
    2.5937    6.5784   -2.1215 C   0  0  0  0  0  0  0  0  0  0  0  0
    2.6713    8.0729   -1.8883 C   0  0  0  0  0  0  0  0  0  0  0  0
    3.8322    8.4743   -1.2994 F   0  0  0  0  0  0  0  0  0  0  0  0
    2.5814    8.7806   -3.0496 F   0  0  0  0  0  0  0  0  0  0  0  0
    1.6676    8.5344   -1.0928 F   0  0  0  0  0  0  0  0  0  0  0  0
    1.4598    6.0262   -2.7423 C   0  0  0  0  0  0  0  0  0  0  0  0
    1.4103    4.6632   -3.0499 C   0  0  0  0  0  0  0  0  0  0  0  0
    1.9161   -1.4639   -0.6964 N   0  0  0  0  0  0  0  0  0  0  0  0
    1.2638   -2.3814    0.1595 O   0  0  0  0  0  0  0  0  0  0  0  0
    3.7303    0.2861   -1.5503 H   0  0  0  0  0  0  0  0  0  0  0  0
    3.1927    1.6250   -0.5139 H   0  0  0  0  0  0  0  0  0  0  0  0
   -0.2269    0.0400   -3.2890 H   0  0  0  0  0  0  0  0  0  0  0  0
   -2.5987    0.2989   -2.6368 H   0  0  0  0  0  0  0  0  0  0  0  0
   -3.2180    1.7703   -0.7481 H   0  0  0  0  0  0  0  0  0  0  0  0
    0.9561    2.7708   -0.1710 H   0  0  0  0  0  0  0  0  0  0  0  0
    4.4760    3.7379   -1.8646 H   0  0  0  0  0  0  0  0  0  0  0  0
    4.5516    6.1383   -1.3073 H   0  0  0  0  0  0  0  0  0  0  0  0
    0.6292    6.6695   -3.0276 H   0  0  0  0  0  0  0  0  0  0  0  0
    0.5473    4.2719   -3.5868 H   0  0  0  0  0  0  0  0  0  0  0  0
    1.5970   -1.4633   -1.6617 H   0  0  0  0  0  0  0  0  0  0  0  0
    1.9927   -2.6847    0.7362 H   0  0  0  0  0  0  0  0  0  0  0  0
  1  2  2  0  0  0  0
  2  3  1  0  0  0  0
  2 27  1  0  0  0  0
  3  4  1  0  0  0  0
  3 29  1  0  0  0  0
  3 30  1  0  0  0  0
  4  5  1  0  0  0  0
  4 14  1  0  0  0  0
  5  6  1  0  0  0  0
  5 13  2  0  0  0  0
  6  7  2  0  0  0  0
  6 31  1  0  0  0  0
  7  8  1  0  0  0  0
  7 32  1  0  0  0  0
  8  9  2  0  0  0  0
  8 33  1  0  0  0  0
  9 10  1  0  0  0  0
  9 13  1  0  0  0  0
 10 11  2  0  0  0  0
 10 12  1  0  0  0  0
 13 34  1  0  0  0  0
 14 15  2  0  0  0  0
 14 16  2  0  0  0  0
 14 17  1  0  0  0  0
 17 18  1  0  0  0  0
 17 26  2  0  0  0  0
 18 19  2  0  0  0  0
 18 35  1  0  0  0  0
 19 20  1  0  0  0  0
 19 36  1  0  0  0  0
 20 21  1  0  0  0  0
 20 25  2  0  0  0  0
 21 22  1  0  0  0  0
 21 23  1  0  0  0  0
 21 24  1  0  0  0  0
 25 26  1  0  0  0  0
 25 37  1  0  0  0  0
 26 38  1  0  0  0  0
 27 28  1  0  0  0  0
 27 39  1  0  0  0  0
 28 40  1  0  0  0  0
M  CHG  2  10   1  12  -1
M  END
>  <Line_Number>
132


> <IC50>
9570

$$$$
