168286714.0
 OpenBabel09302502333D

 40 41  0  0  0  0  0  0  0  0999 V2000
   -1.1048   -0.4096    0.7438 C   0  0  0  0  0  0  0  0  0  0  0  0
   -0.5574   -0.4555   -0.6540 C   0  0  0  0  0  0  0  0  0  0  0  0
   -1.2011    0.3355   -1.6269 C   0  0  0  0  0  0  0  0  0  0  0  0
   -0.7541    0.3721   -2.9477 C   0  0  0  0  0  0  0  0  0  0  0  0
    0.3551   -0.3764   -3.3240 C   0  0  0  0  0  0  0  0  0  0  0  0
    0.9837   -1.2017   -2.3905 C   0  0  0  0  0  0  0  0  0  0  0  0
    0.5245   -1.2612   -1.0593 C   0  0  0  0  0  0  0  0  0  0  0  0
    1.2051   -2.5837   -0.0564 S   0  0  0  0  0  0  0  0  0  0  0  0
    0.7453   -2.4723    1.3134 O   0  0  0  0  0  0  0  0  0  0  0  0
    0.9563   -3.7898   -0.8209 O   0  0  0  0  0  0  0  0  0  0  0  0
    2.9297   -2.2981   -0.0364 N   0  0  0  0  0  0  0  0  0  0  0  0
    3.3631   -1.2876    0.9795 C   0  0  0  0  0  0  0  0  0  0  0  0
    2.9785    0.1396    0.6865 C   0  0  0  0  0  0  0  0  0  0  0  0
    2.3397    0.8432    1.4675 O   0  0  0  0  0  0  0  0  0  0  0  0
    3.4847    0.6385   -0.4900 N   0  0  0  0  0  0  0  0  0  0  0  0
    3.1239    1.9732   -0.7901 O   0  0  0  0  0  0  0  0  0  0  0  0
    3.6724   -3.5503    0.0169 C   0  0  0  0  0  0  0  0  0  0  0  0
    3.9343   -4.2251    1.2202 C   0  0  0  0  0  0  0  0  0  0  0  0
    4.5598   -5.4781    1.2163 C   0  0  0  0  0  0  0  0  0  0  0  0
    4.8925   -6.0917    0.0089 C   0  0  0  0  0  0  0  0  0  0  0  0
    4.5985   -5.4371   -1.1938 C   0  0  0  0  0  0  0  0  0  0  0  0
    4.8977   -6.0951   -2.4703 N   0  3  0  0  0  0  0  0  0  0  0  0
    5.3206   -7.2584   -2.4349 O   0  0  0  0  0  0  0  0  0  0  0  0
    4.7199   -5.4413   -3.5087 O   0  5  0  0  0  0  0  0  0  0  0  0
    4.0003   -4.1683   -1.1937 C   0  0  0  0  0  0  0  0  0  0  0  0
   -1.8440    0.3936    0.8510 H   0  0  0  0  0  0  0  0  0  0  0  0
   -0.3092   -0.1850    1.4595 H   0  0  0  0  0  0  0  0  0  0  0  0
   -1.6037   -1.3480    0.9998 H   0  0  0  0  0  0  0  0  0  0  0  0
   -2.0813    0.9217   -1.3634 H   0  0  0  0  0  0  0  0  0  0  0  0
   -1.2813    0.9776   -3.6819 H   0  0  0  0  0  0  0  0  0  0  0  0
    0.7002   -0.3478   -4.3547 H   0  0  0  0  0  0  0  0  0  0  0  0
    1.7987   -1.8397   -2.7253 H   0  0  0  0  0  0  0  0  0  0  0  0
    4.4600   -1.2984    1.0465 H   0  0  0  0  0  0  0  0  0  0  0  0
    2.9938   -1.5505    1.9773 H   0  0  0  0  0  0  0  0  0  0  0  0
    3.7180    0.0427   -1.2780 H   0  0  0  0  0  0  0  0  0  0  0  0
    2.6013    2.2402   -0.0011 H   0  0  0  0  0  0  0  0  0  0  0  0
    3.6407   -3.8018    2.1781 H   0  0  0  0  0  0  0  0  0  0  0  0
    4.7656   -5.9888    2.1556 H   0  0  0  0  0  0  0  0  0  0  0  0
    5.3562   -7.0764    0.0206 H   0  0  0  0  0  0  0  0  0  0  0  0
    3.7569   -3.6707   -2.1301 H   0  0  0  0  0  0  0  0  0  0  0  0
  1  2  1  0  0  0  0
  1 26  1  0  0  0  0
  1 27  1  0  0  0  0
  1 28  1  0  0  0  0
  2  3  1  0  0  0  0
  2  7  2  0  0  0  0
  3  4  2  0  0  0  0
  3 29  1  0  0  0  0
  4  5  1  0  0  0  0
  4 30  1  0  0  0  0
  5  6  2  0  0  0  0
  5 31  1  0  0  0  0
  6  7  1  0  0  0  0
  6 32  1  0  0  0  0
  7  8  1  0  0  0  0
  8  9  2  0  0  0  0
  8 10  2  0  0  0  0
  8 11  1  0  0  0  0
 11 12  1  0  0  0  0
 11 17  1  0  0  0  0
 12 13  1  0  0  0  0
 12 33  1  0  0  0  0
 12 34  1  0  0  0  0
 13 14  2  0  0  0  0
 13 15  1  0  0  0  0
 15 16  1  0  0  0  0
 15 35  1  0  0  0  0
 16 36  1  0  0  0  0
 17 18  1  0  0  0  0
 17 25  2  0  0  0  0
 18 19  2  0  0  0  0
 18 37  1  0  0  0  0
 19 20  1  0  0  0  0
 19 38  1  0  0  0  0
 20 21  2  0  0  0  0
 20 39  1  0  0  0  0
 21 22  1  0  0  0  0
 21 25  1  0  0  0  0
 22 23  2  0  0  0  0
 22 24  1  0  0  0  0
 25 40  1  0  0  0  0
M  CHG  2  22   1  24  -1
M  END
>  <Line_Number>
133


> <IC50>
7100

$$$$
