CHEMBL462481
 OpenBabel09302502333D

 19 18  0  0  0  0  0  0  0  0999 V2000
    3.5368   -1.0298    0.1046 N   0  0  0  0  0  0  0  0  0  0  0  0
    2.5952    0.1060    0.1046 C   0  0  0  0  0  0  0  0  0  0  0  0
    3.0353    1.1824    1.0985 C   0  0  0  0  0  0  0  0  0  0  0  0
    2.2379    1.9281    1.6633 O   0  0  0  0  0  0  0  0  0  0  0  0
    4.3930    1.2752    1.2761 N   0  0  0  0  0  0  0  0  0  0  0  0
    4.9725    2.2540    2.1641 C   0  0  0  0  0  0  0  0  0  0  0  0
    6.4921    2.1685    2.1933 C   0  0  0  0  0  0  0  0  0  0  0  0
    7.1514    1.3537    1.5503 O   0  0  0  0  0  0  0  0  0  0  0  0
    7.0814    3.0969    3.0179 N   0  0  0  0  0  0  0  0  0  0  0  0
    8.4896    3.0746    3.0996 O   0  0  0  0  0  0  0  0  0  0  0  0
    3.1075   -1.7982   -0.4129 H   0  0  0  0  0  0  0  0  0  0  0  0
    3.6329   -1.3691    1.0630 H   0  0  0  0  0  0  0  0  0  0  0  0
    1.5984   -0.2441    0.3900 H   0  0  0  0  0  0  0  0  0  0  0  0
    2.5508    0.5527   -0.8931 H   0  0  0  0  0  0  0  0  0  0  0  0
    4.9894    0.6180    0.7715 H   0  0  0  0  0  0  0  0  0  0  0  0
    4.5787    2.0836    3.1715 H   0  0  0  0  0  0  0  0  0  0  0  0
    4.6685    3.2496    1.8240 H   0  0  0  0  0  0  0  0  0  0  0  0
    6.5905    3.7772    3.5881 H   0  0  0  0  0  0  0  0  0  0  0  0
    8.7259    2.3435    2.4865 H   0  0  0  0  0  0  0  0  0  0  0  0
  1  2  1  0  0  0  0
  1 11  1  0  0  0  0
  1 12  1  0  0  0  0
  2  3  1  0  0  0  0
  2 13  1  0  0  0  0
  2 14  1  0  0  0  0
  3  4  2  0  0  0  0
  3  5  1  0  0  0  0
  5  6  1  0  0  0  0
  5 15  1  0  0  0  0
  6  7  1  0  0  0  0
  6 16  1  0  0  0  0
  6 17  1  0  0  0  0
  7  8  2  0  0  0  0
  7  9  1  0  0  0  0
  9 10  1  0  0  0  0
  9 18  1  0  0  0  0
 10 19  1  0  0  0  0
M  END
>  <Line_Number>
134


> <IC50>
790

$$$$
