CHEMBL4128654
 OpenBabel09302502333D

 57 60  0  0  0  0  0  0  0  0999 V2000
    1.0442   12.7718   -3.0717 C   0  0  0  0  0  0  0  0  0  0  0  0
   -0.3269   13.0789   -2.5336 C   0  0  0  0  0  0  0  0  0  0  0  0
   -0.9067   14.3052   -2.9161 C   0  0  0  0  0  0  0  0  0  0  0  0
   -2.1362   14.7121   -2.4096 C   0  0  0  0  0  0  0  0  0  0  0  0
   -2.8136   13.8960   -1.5132 C   0  0  0  0  0  0  0  0  0  0  0  0
   -2.2689   12.6659   -1.1079 C   0  0  0  0  0  0  0  0  0  0  0  0
   -3.0876   11.8061   -0.1817 C   0  0  0  0  0  0  0  0  0  0  0  0
   -1.0190   12.2449   -1.6257 C   0  0  0  0  0  0  0  0  0  0  0  0
   -0.4637   11.0326   -1.1281 N   0  0  0  0  0  0  0  0  0  0  0  0
   -0.1014    9.9655   -1.9370 C   0  0  0  0  0  0  0  0  0  0  0  0
   -0.1620    9.9392   -3.1620 O   0  0  0  0  0  0  0  0  0  0  0  0
    0.4067    8.7528   -1.1638 C   0  0  0  0  0  0  0  0  0  0  0  0
    1.9251    8.8259   -1.0515 C   0  0  0  0  0  0  0  0  0  0  0  0
    2.6467    7.3370   -0.2732 S   0  0  0  0  0  0  0  0  0  0  0  0
    4.3273    7.8113   -0.2499 C   0  0  0  0  0  0  0  0  0  0  0  0
    4.7367    9.0636   -0.2584 N   0  0  0  0  0  0  0  0  0  0  0  0
    6.1130    9.0413   -0.2391 N   0  0  0  0  0  0  0  0  0  0  0  0
    6.4597    7.7715   -0.2266 C   0  0  0  0  0  0  0  0  0  0  0  0
    7.8245    7.1908   -0.2027 C   0  0  0  0  0  0  0  0  0  0  0  0
    8.3961    6.9795   -1.5707 C   0  0  0  0  0  0  0  0  0  0  0  0
    8.5566    7.9078   -2.5868 C   0  0  0  0  0  0  0  0  0  0  0  0
    9.2387    7.1499   -3.9732 S   0  0  0  0  0  0  0  0  0  0  0  0
    9.3641    5.6975   -3.0889 C   0  0  0  0  0  0  0  0  0  0  0  0
    9.9618    4.6613   -3.7534 N   0  0  0  0  0  0  0  0  0  0  0  0
   10.2898    3.4963   -3.0927 C   0  0  0  0  0  0  0  0  0  0  0  0
   10.1291    3.2715   -1.8970 O   0  0  0  0  0  0  0  0  0  0  0  0
   10.9012    2.4123   -3.9177 C   0  0  0  0  0  0  0  0  0  0  0  0
   11.5735    2.6471   -5.1232 C   0  0  0  0  0  0  0  0  0  0  0  0
   12.1350    1.5770   -5.8246 C   0  0  0  0  0  0  0  0  0  0  0  0
   12.0387    0.2763   -5.3274 C   0  0  0  0  0  0  0  0  0  0  0  0
   11.3839    0.0372   -4.1221 C   0  0  0  0  0  0  0  0  0  0  0  0
   10.8200    1.1006   -3.4204 C   0  0  0  0  0  0  0  0  0  0  0  0
    8.8890    5.7223   -1.8729 N   0  0  0  0  0  0  0  0  0  0  0  0
    5.3779    6.9249   -0.2158 O   0  0  0  0  0  0  0  0  0  0  0  0
    1.4550   13.6301   -3.6176 H   0  0  0  0  0  0  0  0  0  0  0  0
    1.0165   11.9414   -3.7788 H   0  0  0  0  0  0  0  0  0  0  0  0
    1.7395   12.5543   -2.2558 H   0  0  0  0  0  0  0  0  0  0  0  0
   -0.3853   14.9690   -3.6034 H   0  0  0  0  0  0  0  0  0  0  0  0
   -2.5638   15.6649   -2.7116 H   0  0  0  0  0  0  0  0  0  0  0  0
   -3.7808   14.2230   -1.1371 H   0  0  0  0  0  0  0  0  0  0  0  0
   -4.0551   12.2677    0.0447 H   0  0  0  0  0  0  0  0  0  0  0  0
   -2.5652   11.6552    0.7672 H   0  0  0  0  0  0  0  0  0  0  0  0
   -3.2935   10.8383   -0.6510 H   0  0  0  0  0  0  0  0  0  0  0  0
   -0.7802   10.7643   -0.2057 H   0  0  0  0  0  0  0  0  0  0  0  0
    0.0864    7.8557   -1.7081 H   0  0  0  0  0  0  0  0  0  0  0  0
   -0.0656    8.7105   -0.1751 H   0  0  0  0  0  0  0  0  0  0  0  0
    2.2009    9.7063   -0.4620 H   0  0  0  0  0  0  0  0  0  0  0  0
    2.3682    8.9332   -2.0472 H   0  0  0  0  0  0  0  0  0  0  0  0
    7.8147    6.2420    0.3469 H   0  0  0  0  0  0  0  0  0  0  0  0
    8.4905    7.8640    0.3505 H   0  0  0  0  0  0  0  0  0  0  0  0
    8.2990    8.9584   -2.5901 H   0  0  0  0  0  0  0  0  0  0  0  0
   10.1458    4.8027   -4.7323 H   0  0  0  0  0  0  0  0  0  0  0  0
   11.7064    3.6467   -5.5224 H   0  0  0  0  0  0  0  0  0  0  0  0
   12.6652    1.7561   -6.7573 H   0  0  0  0  0  0  0  0  0  0  0  0
   12.4845   -0.5486   -5.8703 H   0  0  0  0  0  0  0  0  0  0  0  0
   11.3177   -0.9718   -3.7217 H   0  0  0  0  0  0  0  0  0  0  0  0
   10.3169    0.9077   -2.4734 H   0  0  0  0  0  0  0  0  0  0  0  0
  1  2  1  0  0  0  0
  1 35  1  0  0  0  0
  1 36  1  0  0  0  0
  1 37  1  0  0  0  0
  2  3  1  0  0  0  0
  2  8  2  0  0  0  0
  3  4  2  0  0  0  0
  3 38  1  0  0  0  0
  4  5  1  0  0  0  0
  4 39  1  0  0  0  0
  5  6  2  0  0  0  0
  5 40  1  0  0  0  0
  6  7  1  0  0  0  0
  6  8  1  0  0  0  0
  7 41  1  0  0  0  0
  7 42  1  0  0  0  0
  7 43  1  0  0  0  0
  8  9  1  0  0  0  0
  9 10  1  0  0  0  0
  9 44  1  0  0  0  0
 10 11  2  0  0  0  0
 10 12  1  0  0  0  0
 12 13  1  0  0  0  0
 12 45  1  0  0  0  0
 12 46  1  0  0  0  0
 13 14  1  0  0  0  0
 13 47  1  0  0  0  0
 13 48  1  0  0  0  0
 14 15  1  0  0  0  0
 15 16  2  0  0  0  0
 15 34  1  0  0  0  0
 16 17  1  0  0  0  0
 17 18  2  0  0  0  0
 18 19  1  0  0  0  0
 18 34  1  0  0  0  0
 19 20  1  0  0  0  0
 19 49  1  0  0  0  0
 19 50  1  0  0  0  0
 20 21  2  0  0  0  0
 20 33  1  0  0  0  0
 21 22  1  0  0  0  0
 21 51  1  0  0  0  0
 22 23  1  0  0  0  0
 23 24  1  0  0  0  0
 23 33  2  0  0  0  0
 24 25  1  0  0  0  0
 24 52  1  0  0  0  0
 25 26  2  0  0  0  0
 25 27  1  0  0  0  0
 27 28  1  0  0  0  0
 27 32  2  0  0  0  0
 28 29  2  0  0  0  0
 28 53  1  0  0  0  0
 29 30  1  0  0  0  0
 29 54  1  0  0  0  0
 30 31  2  0  0  0  0
 30 55  1  0  0  0  0
 31 32  1  0  0  0  0
 31 56  1  0  0  0  0
 32 57  1  0  0  0  0
M  END
>  <Line_Number>
135


> <IC50>
2790

$$$$
