CHEMBL4126448
 OpenBabel09302502333D

 54 57  0  0  0  0  0  0  0  0999 V2000
   -0.5974  -12.7348   -3.7286 C   0  0  0  0  0  0  0  0  0  0  0  0
   -1.9788  -12.1520   -3.6253 C   0  0  0  0  0  0  0  0  0  0  0  0
   -3.0401  -12.8067   -4.2591 C   0  0  0  0  0  0  0  0  0  0  0  0
   -4.3246  -12.2921   -4.1676 C   0  0  0  0  0  0  0  0  0  0  0  0
   -4.5625  -11.1237   -3.4416 C   0  0  0  0  0  0  0  0  0  0  0  0
   -3.5273  -10.4373   -2.7940 C   0  0  0  0  0  0  0  0  0  0  0  0
   -3.7437   -9.2399   -2.0506 N   0  0  0  0  0  0  0  0  0  0  0  0
   -4.9734   -8.6176   -1.8565 C   0  0  0  0  0  0  0  0  0  0  0  0
   -6.0507   -9.0265   -2.2878 O   0  0  0  0  0  0  0  0  0  0  0  0
   -4.9331   -7.3291   -1.0439 C   0  0  0  0  0  0  0  0  0  0  0  0
   -6.3614   -6.7634   -0.9101 C   0  0  0  0  0  0  0  0  0  0  0  0
   -6.4109   -5.1902    0.0113 S   0  0  0  0  0  0  0  0  0  0  0  0
   -8.1299   -4.8552    0.0183 C   0  0  0  0  0  0  0  0  0  0  0  0
   -9.0724   -5.7755   -0.0395 N   0  0  0  0  0  0  0  0  0  0  0  0
  -10.2846   -5.1157   -0.0085 N   0  0  0  0  0  0  0  0  0  0  0  0
  -10.0058   -3.8303    0.0685 C   0  0  0  0  0  0  0  0  0  0  0  0
  -10.9383   -2.6736    0.0460 C   0  0  0  0  0  0  0  0  0  0  0  0
  -11.4062   -2.2367    1.4016 C   0  0  0  0  0  0  0  0  0  0  0  0
  -12.0920   -2.9760    2.3523 C   0  0  0  0  0  0  0  0  0  0  0  0
  -12.4662   -1.9853    3.7108 S   0  0  0  0  0  0  0  0  0  0  0  0
  -11.7060   -0.6667    2.9386 C   0  0  0  0  0  0  0  0  0  0  0  0
  -11.7138    0.5080    3.6486 N   0  0  0  0  0  0  0  0  0  0  0  0
  -10.9389    1.5808    3.2517 C   0  0  0  0  0  0  0  0  0  0  0  0
  -10.1752    1.5846    2.2903 O   0  0  0  0  0  0  0  0  0  0  0  0
  -10.9978    2.8295    4.0847 C   0  0  0  0  0  0  0  0  0  0  0  0
  -11.8793    3.0271    5.1555 C   0  0  0  0  0  0  0  0  0  0  0  0
  -11.8656    4.2355    5.8663 C   0  0  0  0  0  0  0  0  0  0  0  0
  -10.9669    5.2473    5.5282 C   0  0  0  0  0  0  0  0  0  0  0  0
  -10.0806    5.0602    4.4736 C   0  0  0  0  0  0  0  0  0  0  0  0
  -10.1041    3.8651    3.7523 C   0  0  0  0  0  0  0  0  0  0  0  0
  -11.2034   -0.9112    1.7572 N   0  0  0  0  0  0  0  0  0  0  0  0
   -8.6543   -3.5855    0.0904 O   0  0  0  0  0  0  0  0  0  0  0  0
   -2.2279  -10.9668   -2.8949 C   0  0  0  0  0  0  0  0  0  0  0  0
   -0.5962  -13.6408   -4.3474 H   0  0  0  0  0  0  0  0  0  0  0  0
   -0.2266  -13.0162   -2.7386 H   0  0  0  0  0  0  0  0  0  0  0  0
    0.0889  -12.0218   -4.1941 H   0  0  0  0  0  0  0  0  0  0  0  0
   -2.8741  -13.7176   -4.8322 H   0  0  0  0  0  0  0  0  0  0  0  0
   -5.1559  -12.7922   -4.6588 H   0  0  0  0  0  0  0  0  0  0  0  0
   -5.5905  -10.7832   -3.4103 H   0  0  0  0  0  0  0  0  0  0  0  0
   -2.9251   -8.8080   -1.6277 H   0  0  0  0  0  0  0  0  0  0  0  0
   -4.2823   -6.6150   -1.5603 H   0  0  0  0  0  0  0  0  0  0  0  0
   -4.5129   -7.5520   -0.0569 H   0  0  0  0  0  0  0  0  0  0  0  0
   -7.0026   -7.4960   -0.4054 H   0  0  0  0  0  0  0  0  0  0  0  0
   -6.7844   -6.5826   -1.9057 H   0  0  0  0  0  0  0  0  0  0  0  0
  -11.8179   -2.9347   -0.5564 H   0  0  0  0  0  0  0  0  0  0  0  0
  -10.4618   -1.8274   -0.4644 H   0  0  0  0  0  0  0  0  0  0  0  0
  -12.3919   -4.0146    2.3159 H   0  0  0  0  0  0  0  0  0  0  0  0
  -12.2386    0.5029    4.5055 H   0  0  0  0  0  0  0  0  0  0  0  0
  -12.5939    2.2735    5.4645 H   0  0  0  0  0  0  0  0  0  0  0  0
  -12.5579    4.3903    6.6908 H   0  0  0  0  0  0  0  0  0  0  0  0
  -10.9562    6.1802    6.0867 H   0  0  0  0  0  0  0  0  0  0  0  0
   -9.3689    5.8388    4.2089 H   0  0  0  0  0  0  0  0  0  0  0  0
   -9.4104    3.7432    2.9208 H   0  0  0  0  0  0  0  0  0  0  0  0
   -1.3922  -10.4709   -2.4068 H   0  0  0  0  0  0  0  0  0  0  0  0
  1  2  1  0  0  0  0
  1 34  1  0  0  0  0
  1 35  1  0  0  0  0
  1 36  1  0  0  0  0
  2  3  1  0  0  0  0
  2 33  2  0  0  0  0
  3  4  2  0  0  0  0
  3 37  1  0  0  0  0
  4  5  1  0  0  0  0
  4 38  1  0  0  0  0
  5  6  2  0  0  0  0
  5 39  1  0  0  0  0
  6  7  1  0  0  0  0
  6 33  1  0  0  0  0
  7  8  1  0  0  0  0
  7 40  1  0  0  0  0
  8  9  2  0  0  0  0
  8 10  1  0  0  0  0
 10 11  1  0  0  0  0
 10 41  1  0  0  0  0
 10 42  1  0  0  0  0
 11 12  1  0  0  0  0
 11 43  1  0  0  0  0
 11 44  1  0  0  0  0
 12 13  1  0  0  0  0
 13 14  2  0  0  0  0
 13 32  1  0  0  0  0
 14 15  1  0  0  0  0
 15 16  2  0  0  0  0
 16 17  1  0  0  0  0
 16 32  1  0  0  0  0
 17 18  1  0  0  0  0
 17 45  1  0  0  0  0
 17 46  1  0  0  0  0
 18 19  2  0  0  0  0
 18 31  1  0  0  0  0
 19 20  1  0  0  0  0
 19 47  1  0  0  0  0
 20 21  1  0  0  0  0
 21 22  1  0  0  0  0
 21 31  2  0  0  0  0
 22 23  1  0  0  0  0
 22 48  1  0  0  0  0
 23 24  2  0  0  0  0
 23 25  1  0  0  0  0
 25 26  1  0  0  0  0
 25 30  2  0  0  0  0
 26 27  2  0  0  0  0
 26 49  1  0  0  0  0
 27 28  1  0  0  0  0
 27 50  1  0  0  0  0
 28 29  2  0  0  0  0
 28 51  1  0  0  0  0
 29 30  1  0  0  0  0
 29 52  1  0  0  0  0
 30 53  1  0  0  0  0
 33 54  1  0  0  0  0
M  END
>  <Line_Number>
136


> <IC50>
12230

$$$$
