CHEMBL4129736
 OpenBabel09302502333D

 54 57  0  0  0  0  0  0  0  0999 V2000
    0.7476    0.0575    0.3442 C   0  0  0  0  0  0  0  0  0  0  0  0
    1.1039    0.1997   -1.1111 C   0  0  0  0  0  0  0  0  0  0  0  0
    0.6660    1.3675   -1.7726 C   0  0  0  0  0  0  0  0  0  0  0  0
    0.9412    1.5811   -3.1220 C   0  0  0  0  0  0  0  0  0  0  0  0
    1.6712    0.6380   -3.8284 C   0  0  0  0  0  0  0  0  0  0  0  0
    2.1120   -0.5225   -3.1882 C   0  0  0  0  0  0  0  0  0  0  0  0
    1.8282   -0.7732   -1.8367 C   0  0  0  0  0  0  0  0  0  0  0  0
    2.2742   -1.9716   -1.2044 N   0  0  0  0  0  0  0  0  0  0  0  0
    2.7156   -3.1183   -1.8581 C   0  0  0  0  0  0  0  0  0  0  0  0
    2.7152   -3.3177   -3.0710 O   0  0  0  0  0  0  0  0  0  0  0  0
    3.2696   -4.1925   -0.9442 C   0  0  0  0  0  0  0  0  0  0  0  0
    4.7811   -4.0274   -0.8351 C   0  0  0  0  0  0  0  0  0  0  0  0
    5.5021   -5.4109    0.1048 S   0  0  0  0  0  0  0  0  0  0  0  0
    7.1839   -4.9683    0.0841 C   0  0  0  0  0  0  0  0  0  0  0  0
    7.6371   -3.7328    0.0092 N   0  0  0  0  0  0  0  0  0  0  0  0
    9.0154   -3.8103    0.0232 N   0  0  0  0  0  0  0  0  0  0  0  0
    9.3119   -5.0914    0.1080 C   0  0  0  0  0  0  0  0  0  0  0  0
   10.6393   -5.7531    0.0844 C   0  0  0  0  0  0  0  0  0  0  0  0
   11.2039   -6.0025    1.4481 C   0  0  0  0  0  0  0  0  0  0  0  0
   11.5815   -5.0654    2.3955 C   0  0  0  0  0  0  0  0  0  0  0  0
   12.2437   -5.8547    3.7727 S   0  0  0  0  0  0  0  0  0  0  0  0
   11.9535   -7.3617    3.0258 C   0  0  0  0  0  0  0  0  0  0  0  0
   12.3053   -8.4523    3.7779 N   0  0  0  0  0  0  0  0  0  0  0  0
   12.0156   -9.7352    3.3612 C   0  0  0  0  0  0  0  0  0  0  0  0
   11.4225  -10.0260    2.3276 O   0  0  0  0  0  0  0  0  0  0  0  0
   12.4479  -10.8625    4.2490 C   0  0  0  0  0  0  0  0  0  0  0  0
   13.2971  -10.7129    5.3514 C   0  0  0  0  0  0  0  0  0  0  0  0
   13.6587  -11.8294    6.1177 C   0  0  0  0  0  0  0  0  0  0  0  0
   13.1814  -13.0977    5.7908 C   0  0  0  0  0  0  0  0  0  0  0  0
   12.3414  -13.2583    4.6936 C   0  0  0  0  0  0  0  0  0  0  0  0
   11.9782  -12.1480    3.9303 C   0  0  0  0  0  0  0  0  0  0  0  0
   11.4353   -7.3155    1.8272 N   0  0  0  0  0  0  0  0  0  0  0  0
    8.1979   -5.8889    0.1533 O   0  0  0  0  0  0  0  0  0  0  0  0
    0.1055    0.8817    0.6812 H   0  0  0  0  0  0  0  0  0  0  0  0
    1.6497    0.0744    0.9630 H   0  0  0  0  0  0  0  0  0  0  0  0
    0.1919   -0.8687    0.5175 H   0  0  0  0  0  0  0  0  0  0  0  0
    0.0935    2.1234   -1.2363 H   0  0  0  0  0  0  0  0  0  0  0  0
    0.5876    2.4797   -3.6196 H   0  0  0  0  0  0  0  0  0  0  0  0
    1.9037    0.7936   -4.8780 H   0  0  0  0  0  0  0  0  0  0  0  0
    2.7024   -1.2127   -3.7824 H   0  0  0  0  0  0  0  0  0  0  0  0
    2.1475   -2.0282   -0.2017 H   0  0  0  0  0  0  0  0  0  0  0  0
    3.0115   -5.1601   -1.3962 H   0  0  0  0  0  0  0  0  0  0  0  0
    2.7807   -4.1535    0.0343 H   0  0  0  0  0  0  0  0  0  0  0  0
    5.0163   -3.0811   -0.3374 H   0  0  0  0  0  0  0  0  0  0  0  0
    5.2357   -4.0036   -1.8326 H   0  0  0  0  0  0  0  0  0  0  0  0
   11.3440   -5.1315   -0.4814 H   0  0  0  0  0  0  0  0  0  0  0  0
   10.5623   -6.7024   -0.4597 H   0  0  0  0  0  0  0  0  0  0  0  0
   11.5099   -3.9875    2.3448 H   0  0  0  0  0  0  0  0  0  0  0  0
   12.7166   -8.2554    4.6731 H   0  0  0  0  0  0  0  0  0  0  0  0
   13.7137   -9.7540    5.6393 H   0  0  0  0  0  0  0  0  0  0  0  0
   14.3209  -11.7100    6.9733 H   0  0  0  0  0  0  0  0  0  0  0  0
   13.4702  -13.9623    6.3829 H   0  0  0  0  0  0  0  0  0  0  0  0
   11.9706  -14.2446    4.4251 H   0  0  0  0  0  0  0  0  0  0  0  0
   11.3224  -12.2939    3.0715 H   0  0  0  0  0  0  0  0  0  0  0  0
  1  2  1  0  0  0  0
  1 34  1  0  0  0  0
  1 35  1  0  0  0  0
  1 36  1  0  0  0  0
  2  3  1  0  0  0  0
  2  7  2  0  0  0  0
  3  4  2  0  0  0  0
  3 37  1  0  0  0  0
  4  5  1  0  0  0  0
  4 38  1  0  0  0  0
  5  6  2  0  0  0  0
  5 39  1  0  0  0  0
  6  7  1  0  0  0  0
  6 40  1  0  0  0  0
  7  8  1  0  0  0  0
  8  9  1  0  0  0  0
  8 41  1  0  0  0  0
  9 10  2  0  0  0  0
  9 11  1  0  0  0  0
 11 12  1  0  0  0  0
 11 42  1  0  0  0  0
 11 43  1  0  0  0  0
 12 13  1  0  0  0  0
 12 44  1  0  0  0  0
 12 45  1  0  0  0  0
 13 14  1  0  0  0  0
 14 15  2  0  0  0  0
 14 33  1  0  0  0  0
 15 16  1  0  0  0  0
 16 17  2  0  0  0  0
 17 18  1  0  0  0  0
 17 33  1  0  0  0  0
 18 19  1  0  0  0  0
 18 46  1  0  0  0  0
 18 47  1  0  0  0  0
 19 20  2  0  0  0  0
 19 32  1  0  0  0  0
 20 21  1  0  0  0  0
 20 48  1  0  0  0  0
 21 22  1  0  0  0  0
 22 23  1  0  0  0  0
 22 32  2  0  0  0  0
 23 24  1  0  0  0  0
 23 49  1  0  0  0  0
 24 25  2  0  0  0  0
 24 26  1  0  0  0  0
 26 27  1  0  0  0  0
 26 31  2  0  0  0  0
 27 28  2  0  0  0  0
 27 50  1  0  0  0  0
 28 29  1  0  0  0  0
 28 51  1  0  0  0  0
 29 30  2  0  0  0  0
 29 52  1  0  0  0  0
 30 31  1  0  0  0  0
 30 53  1  0  0  0  0
 31 54  1  0  0  0  0
M  END
>  <Line_Number>
137


> <IC50>
7470

$$$$
