CHEMBL4126727
 OpenBabel09302502333D

 57 60  0  0  0  0  0  0  0  0999 V2000
    8.8451    0.3366   -0.1562 C   0  0  0  0  0  0  0  0  0  0  0  0
    7.3412    0.4156    0.0566 C   0  0  0  0  0  0  0  0  0  0  0  0
    6.9443    1.5721    0.9376 C   0  0  0  0  0  0  0  0  0  0  0  0
    6.7771    2.8365    0.3743 C   0  0  0  0  0  0  0  0  0  0  0  0
    6.3808    3.9216    1.1596 C   0  0  0  0  0  0  0  0  0  0  0  0
    6.1418    3.7811    2.5291 C   0  0  0  0  0  0  0  0  0  0  0  0
    5.6999    4.8518    3.3551 N   0  0  0  0  0  0  0  0  0  0  0  0
    5.4556    6.1473    2.9323 C   0  0  0  0  0  0  0  0  0  0  0  0
    5.6041    6.5637    1.7894 O   0  0  0  0  0  0  0  0  0  0  0  0
    4.9618    7.0827    4.0255 C   0  0  0  0  0  0  0  0  0  0  0  0
    4.7171    8.4668    3.4136 C   0  0  0  0  0  0  0  0  0  0  0  0
    4.1620    9.6777    4.6486 S   0  0  0  0  0  0  0  0  0  0  0  0
    4.0642   11.1051    3.6520 C   0  0  0  0  0  0  0  0  0  0  0  0
    3.8088   11.1161    2.3583 N   0  0  0  0  0  0  0  0  0  0  0  0
    3.8188   12.4386    1.9574 N   0  0  0  0  0  0  0  0  0  0  0  0
    4.0885   13.1458    3.0353 C   0  0  0  0  0  0  0  0  0  0  0  0
    4.1965   14.6151    3.1951 C   0  0  0  0  0  0  0  0  0  0  0  0
    5.5891   15.1329    3.0050 C   0  0  0  0  0  0  0  0  0  0  0  0
    6.3597   15.1112    1.8543 C   0  0  0  0  0  0  0  0  0  0  0  0
    7.8444   15.9427    2.1244 S   0  0  0  0  0  0  0  0  0  0  0  0
    7.3815   16.2022    3.7442 C   0  0  0  0  0  0  0  0  0  0  0  0
    8.2961   16.8600    4.5263 N   0  0  0  0  0  0  0  0  0  0  0  0
    8.1346   16.8942    5.8955 C   0  0  0  0  0  0  0  0  0  0  0  0
    7.2682   16.3083    6.5375 O   0  0  0  0  0  0  0  0  0  0  0  0
    9.1387   17.6747    6.6716 C   0  0  0  0  0  0  0  0  0  0  0  0
    9.7700   18.8195    6.1718 C   0  0  0  0  0  0  0  0  0  0  0  0
   10.6169   19.5621    7.0033 C   0  0  0  0  0  0  0  0  0  0  0  0
   10.8352   19.1668    8.3249 C   0  0  0  0  0  0  0  0  0  0  0  0
   10.2195   18.0211    8.8213 C   0  0  0  0  0  0  0  0  0  0  0  0
    9.3749   17.2790    7.9977 C   0  0  0  0  0  0  0  0  0  0  0  0
    6.1974   15.7610    4.0781 N   0  0  0  0  0  0  0  0  0  0  0  0
    4.2402   12.3689    4.1534 O   0  0  0  0  0  0  0  0  0  0  0  0
    6.3358    2.5171    3.1023 C   0  0  0  0  0  0  0  0  0  0  0  0
    6.7374    1.4231    2.3140 C   0  0  0  0  0  0  0  0  0  0  0  0
    9.0873   -0.4937   -0.8278 H   0  0  0  0  0  0  0  0  0  0  0  0
    9.3707    0.1743    0.7901 H   0  0  0  0  0  0  0  0  0  0  0  0
    9.2352    1.2564   -0.6057 H   0  0  0  0  0  0  0  0  0  0  0  0
    6.9726   -0.5248    0.4818 H   0  0  0  0  0  0  0  0  0  0  0  0
    6.8436    0.5209   -0.9165 H   0  0  0  0  0  0  0  0  0  0  0  0
    6.9432    2.9955   -0.6888 H   0  0  0  0  0  0  0  0  0  0  0  0
    6.2629    4.8672    0.6446 H   0  0  0  0  0  0  0  0  0  0  0  0
    5.5495    4.6324    4.3328 H   0  0  0  0  0  0  0  0  0  0  0  0
    5.7229    7.1308    4.8131 H   0  0  0  0  0  0  0  0  0  0  0  0
    4.0351    6.6740    4.4474 H   0  0  0  0  0  0  0  0  0  0  0  0
    3.9624    8.3947    2.6216 H   0  0  0  0  0  0  0  0  0  0  0  0
    5.6429    8.8401    2.9594 H   0  0  0  0  0  0  0  0  0  0  0  0
    3.8349   14.8983    4.1916 H   0  0  0  0  0  0  0  0  0  0  0  0
    3.5336   15.1119    2.4762 H   0  0  0  0  0  0  0  0  0  0  0  0
    6.1230   14.6778    0.8920 H   0  0  0  0  0  0  0  0  0  0  0  0
    9.1309   17.2012    4.0776 H   0  0  0  0  0  0  0  0  0  0  0  0
    9.5807   19.1794    5.1653 H   0  0  0  0  0  0  0  0  0  0  0  0
   11.0901   20.4681    6.6313 H   0  0  0  0  0  0  0  0  0  0  0  0
   11.4739   19.7601    8.9752 H   0  0  0  0  0  0  0  0  0  0  0  0
   10.3765   17.7135    9.8521 H   0  0  0  0  0  0  0  0  0  0  0  0
    8.8778   16.3969    8.3994 H   0  0  0  0  0  0  0  0  0  0  0  0
    6.1742    2.3542    4.1648 H   0  0  0  0  0  0  0  0  0  0  0  0
    6.8773    0.4508    2.7823 H   0  0  0  0  0  0  0  0  0  0  0  0
  1  2  1  0  0  0  0
  1 35  1  0  0  0  0
  1 36  1  0  0  0  0
  1 37  1  0  0  0  0
  2  3  1  0  0  0  0
  2 38  1  0  0  0  0
  2 39  1  0  0  0  0
  3  4  1  0  0  0  0
  3 34  2  0  0  0  0
  4  5  2  0  0  0  0
  4 40  1  0  0  0  0
  5  6  1  0  0  0  0
  5 41  1  0  0  0  0
  6  7  1  0  0  0  0
  6 33  2  0  0  0  0
  7  8  1  0  0  0  0
  7 42  1  0  0  0  0
  8  9  2  0  0  0  0
  8 10  1  0  0  0  0
 10 11  1  0  0  0  0
 10 43  1  0  0  0  0
 10 44  1  0  0  0  0
 11 12  1  0  0  0  0
 11 45  1  0  0  0  0
 11 46  1  0  0  0  0
 12 13  1  0  0  0  0
 13 14  2  0  0  0  0
 13 32  1  0  0  0  0
 14 15  1  0  0  0  0
 15 16  2  0  0  0  0
 16 17  1  0  0  0  0
 16 32  1  0  0  0  0
 17 18  1  0  0  0  0
 17 47  1  0  0  0  0
 17 48  1  0  0  0  0
 18 19  2  0  0  0  0
 18 31  1  0  0  0  0
 19 20  1  0  0  0  0
 19 49  1  0  0  0  0
 20 21  1  0  0  0  0
 21 22  1  0  0  0  0
 21 31  2  0  0  0  0
 22 23  1  0  0  0  0
 22 50  1  0  0  0  0
 23 24  2  0  0  0  0
 23 25  1  0  0  0  0
 25 26  1  0  0  0  0
 25 30  2  0  0  0  0
 26 27  2  0  0  0  0
 26 51  1  0  0  0  0
 27 28  1  0  0  0  0
 27 52  1  0  0  0  0
 28 29  2  0  0  0  0
 28 53  1  0  0  0  0
 29 30  1  0  0  0  0
 29 54  1  0  0  0  0
 30 55  1  0  0  0  0
 33 34  1  0  0  0  0
 33 56  1  0  0  0  0
 34 57  1  0  0  0  0
M  END
>  <Line_Number>
138


> <IC50>
43180

$$$$
