CHEMBL4127682
 OpenBabel09302502333D

 57 60  0  0  0  0  0  0  0  0999 V2000
    5.7107  -11.3607   -3.4485 C   0  0  0  0  0  0  0  0  0  0  0  0
    4.2113  -11.4844   -3.3179 C   0  0  0  0  0  0  0  0  0  0  0  0
    3.6102  -12.6218   -3.8709 C   0  0  0  0  0  0  0  0  0  0  0  0
    2.2435  -12.8012   -3.7746 C   0  0  0  0  0  0  0  0  0  0  0  0
    1.4599  -11.8490   -3.1257 C   0  0  0  0  0  0  0  0  0  0  0  0
    2.0075  -10.6848   -2.5569 C   0  0  0  0  0  0  0  0  0  0  0  0
    1.1652   -9.7351   -1.9000 N   0  0  0  0  0  0  0  0  0  0  0  0
   -0.2206   -9.8096   -1.7455 C   0  0  0  0  0  0  0  0  0  0  0  0
   -0.9376  -10.7125   -2.1619 O   0  0  0  0  0  0  0  0  0  0  0  0
   -0.8397   -8.6352   -0.9960 C   0  0  0  0  0  0  0  0  0  0  0  0
   -2.3574   -8.8512   -0.8826 C   0  0  0  0  0  0  0  0  0  0  0  0
   -3.2177   -7.4692   -0.0603 S   0  0  0  0  0  0  0  0  0  0  0  0
   -4.8584   -8.0709   -0.0869 C   0  0  0  0  0  0  0  0  0  0  0  0
   -5.1886   -9.3470   -0.1048 N   0  0  0  0  0  0  0  0  0  0  0  0
   -6.5660   -9.4091   -0.1270 N   0  0  0  0  0  0  0  0  0  0  0  0
   -6.9922   -8.1633   -0.1219 C   0  0  0  0  0  0  0  0  0  0  0  0
   -8.3884   -7.6595   -0.1219 C   0  0  0  0  0  0  0  0  0  0  0  0
   -8.9391   -7.4448   -1.4980 C   0  0  0  0  0  0  0  0  0  0  0  0
   -9.0670   -8.3660   -2.5249 C   0  0  0  0  0  0  0  0  0  0  0  0
   -9.7410   -7.6069   -3.9154 S   0  0  0  0  0  0  0  0  0  0  0  0
   -9.9087   -6.1677   -3.0175 C   0  0  0  0  0  0  0  0  0  0  0  0
  -10.5211   -5.1362   -3.6769 N   0  0  0  0  0  0  0  0  0  0  0  0
  -10.9294   -4.0108   -2.9932 C   0  0  0  0  0  0  0  0  0  0  0  0
  -10.8306   -3.8176   -1.7868 O   0  0  0  0  0  0  0  0  0  0  0  0
  -11.5673   -2.9373   -3.8086 C   0  0  0  0  0  0  0  0  0  0  0  0
  -12.2194   -3.1823   -5.0227 C   0  0  0  0  0  0  0  0  0  0  0  0
  -12.8190   -2.1252   -5.7169 C   0  0  0  0  0  0  0  0  0  0  0  0
  -12.7783   -0.8307   -5.1992 C   0  0  0  0  0  0  0  0  0  0  0  0
  -12.1426   -0.5831   -3.9855 C   0  0  0  0  0  0  0  0  0  0  0  0
  -11.5403   -1.6326   -3.2925 C   0  0  0  0  0  0  0  0  0  0  0  0
   -9.4507   -6.1942   -1.7953 N   0  0  0  0  0  0  0  0  0  0  0  0
   -5.9641   -7.2535   -0.0833 O   0  0  0  0  0  0  0  0  0  0  0  0
    3.4127  -10.4974   -2.6576 C   0  0  0  0  0  0  0  0  0  0  0  0
    4.1367   -9.2915   -2.1038 C   0  0  0  0  0  0  0  0  0  0  0  0
    6.1389  -12.2222   -3.9749 H   0  0  0  0  0  0  0  0  0  0  0  0
    6.1805  -11.3232   -2.4612 H   0  0  0  0  0  0  0  0  0  0  0  0
    5.9752  -10.4684   -4.0234 H   0  0  0  0  0  0  0  0  0  0  0  0
    4.2047  -13.3781   -4.3784 H   0  0  0  0  0  0  0  0  0  0  0  0
    1.7725  -13.6845   -4.1976 H   0  0  0  0  0  0  0  0  0  0  0  0
    0.4002  -12.0682   -3.0885 H   0  0  0  0  0  0  0  0  0  0  0  0
    1.6138   -8.9221   -1.5019 H   0  0  0  0  0  0  0  0  0  0  0  0
   -0.6195   -7.7143   -1.5492 H   0  0  0  0  0  0  0  0  0  0  0  0
   -0.3841   -8.5731   -0.0013 H   0  0  0  0  0  0  0  0  0  0  0  0
   -2.5542   -9.7745   -0.3253 H   0  0  0  0  0  0  0  0  0  0  0  0
   -2.7926   -8.9664   -1.8826 H   0  0  0  0  0  0  0  0  0  0  0  0
   -8.4418   -6.7224    0.4460 H   0  0  0  0  0  0  0  0  0  0  0  0
   -9.0330   -8.3759    0.4015 H   0  0  0  0  0  0  0  0  0  0  0  0
   -8.7917   -9.4119   -2.5336 H   0  0  0  0  0  0  0  0  0  0  0  0
  -10.6726   -5.2592   -4.6637 H   0  0  0  0  0  0  0  0  0  0  0  0
  -12.3101   -4.1814   -5.4338 H   0  0  0  0  0  0  0  0  0  0  0  0
  -13.3306   -2.3149   -6.6567 H   0  0  0  0  0  0  0  0  0  0  0  0
  -13.2534   -0.0143   -5.7381 H   0  0  0  0  0  0  0  0  0  0  0  0
  -12.1199    0.4220   -3.5714 H   0  0  0  0  0  0  0  0  0  0  0  0
  -11.0523   -1.4322   -2.3391 H   0  0  0  0  0  0  0  0  0  0  0  0
    3.4889   -8.5611   -1.6200 H   0  0  0  0  0  0  0  0  0  0  0  0
    4.6556   -8.7644   -2.9130 H   0  0  0  0  0  0  0  0  0  0  0  0
    4.8739   -9.6073   -1.3571 H   0  0  0  0  0  0  0  0  0  0  0  0
  1  2  1  0  0  0  0
  1 35  1  0  0  0  0
  1 36  1  0  0  0  0
  1 37  1  0  0  0  0
  2  3  1  0  0  0  0
  2 33  2  0  0  0  0
  3  4  2  0  0  0  0
  3 38  1  0  0  0  0
  4  5  1  0  0  0  0
  4 39  1  0  0  0  0
  5  6  2  0  0  0  0
  5 40  1  0  0  0  0
  6  7  1  0  0  0  0
  6 33  1  0  0  0  0
  7  8  1  0  0  0  0
  7 41  1  0  0  0  0
  8  9  2  0  0  0  0
  8 10  1  0  0  0  0
 10 11  1  0  0  0  0
 10 42  1  0  0  0  0
 10 43  1  0  0  0  0
 11 12  1  0  0  0  0
 11 44  1  0  0  0  0
 11 45  1  0  0  0  0
 12 13  1  0  0  0  0
 13 14  2  0  0  0  0
 13 32  1  0  0  0  0
 14 15  1  0  0  0  0
 15 16  2  0  0  0  0
 16 17  1  0  0  0  0
 16 32  1  0  0  0  0
 17 18  1  0  0  0  0
 17 46  1  0  0  0  0
 17 47  1  0  0  0  0
 18 19  2  0  0  0  0
 18 31  1  0  0  0  0
 19 20  1  0  0  0  0
 19 48  1  0  0  0  0
 20 21  1  0  0  0  0
 21 22  1  0  0  0  0
 21 31  2  0  0  0  0
 22 23  1  0  0  0  0
 22 49  1  0  0  0  0
 23 24  2  0  0  0  0
 23 25  1  0  0  0  0
 25 26  1  0  0  0  0
 25 30  2  0  0  0  0
 26 27  2  0  0  0  0
 26 50  1  0  0  0  0
 27 28  1  0  0  0  0
 27 51  1  0  0  0  0
 28 29  2  0  0  0  0
 28 52  1  0  0  0  0
 29 30  1  0  0  0  0
 29 53  1  0  0  0  0
 30 54  1  0  0  0  0
 33 34  1  0  0  0  0
 34 55  1  0  0  0  0
 34 56  1  0  0  0  0
 34 57  1  0  0  0  0
M  END
>  <Line_Number>
139


> <IC50>
48160

$$$$
