82061.0
 OpenBabel09302502333D

 38 38  0  0  0  0  0  0  0  0999 V2000
    0.9758    0.0991    0.0390 C   0  0  0  0  0  0  0  0  0  0  0  0
    2.4942    0.0940    0.0399 C   0  0  0  0  0  0  0  0  0  0  0  0
    3.0401    0.1332   -1.3814 C   0  0  0  0  0  0  0  0  0  0  0  0
    4.5667    0.1191   -1.3839 C   0  0  0  0  0  0  0  0  0  0  0  0
    5.0818    0.1762   -2.8146 C   0  0  0  0  0  0  0  0  0  0  0  0
    6.6077    0.2009   -2.8680 C   0  0  0  0  0  0  0  0  0  0  0  0
    7.1297    0.2668   -4.3032 C   0  0  0  0  0  0  0  0  0  0  0  0
    6.6736    1.5343   -5.0309 C   0  0  0  0  0  0  0  0  0  0  0  0
    7.1737    1.5642   -6.4467 C   0  0  0  0  0  0  0  0  0  0  0  0
    8.3923    2.1828   -6.7612 C   0  0  0  0  0  0  0  0  0  0  0  0
    8.8565    2.1973   -8.0774 C   0  0  0  0  0  0  0  0  0  0  0  0
    8.0970    1.5887   -9.0717 C   0  0  0  0  0  0  0  0  0  0  0  0
    8.5020    1.5723  -10.3776 O   0  0  0  0  0  0  0  0  0  0  0  0
    6.8923    0.9662   -8.7587 C   0  0  0  0  0  0  0  0  0  0  0  0
    6.1534    0.3666   -9.7373 O   0  0  0  0  0  0  0  0  0  0  0  0
    6.4250    0.9456   -7.4576 C   0  0  0  0  0  0  0  0  0  0  0  0
    0.5971    0.0668    1.0645 H   0  0  0  0  0  0  0  0  0  0  0  0
    0.5832   -0.7697   -0.4991 H   0  0  0  0  0  0  0  0  0  0  0  0
    0.5885    1.0036   -0.4412 H   0  0  0  0  0  0  0  0  0  0  0  0
    2.8556   -0.8052    0.5516 H   0  0  0  0  0  0  0  0  0  0  0  0
    2.8608    0.9602    0.6028 H   0  0  0  0  0  0  0  0  0  0  0  0
    2.6786    1.0362   -1.8904 H   0  0  0  0  0  0  0  0  0  0  0  0
    2.6636   -0.7264   -1.9498 H   0  0  0  0  0  0  0  0  0  0  0  0
    4.9378   -0.7850   -0.8878 H   0  0  0  0  0  0  0  0  0  0  0  0
    4.9453    0.9821   -0.8226 H   0  0  0  0  0  0  0  0  0  0  0  0
    4.6695    1.0766   -3.2811 H   0  0  0  0  0  0  0  0  0  0  0  0
    4.7078   -0.6833   -3.3843 H   0  0  0  0  0  0  0  0  0  0  0  0
    7.0045   -0.7023   -2.3885 H   0  0  0  0  0  0  0  0  0  0  0  0
    6.9892    1.0577   -2.2999 H   0  0  0  0  0  0  0  0  0  0  0  0
    6.7984   -0.6252   -4.8507 H   0  0  0  0  0  0  0  0  0  0  0  0
    8.2262    0.2271   -4.2812 H   0  0  0  0  0  0  0  0  0  0  0  0
    7.0137    2.4254   -4.4891 H   0  0  0  0  0  0  0  0  0  0  0  0
    5.5809    1.6020   -5.0661 H   0  0  0  0  0  0  0  0  0  0  0  0
    8.9807    2.6548   -5.9772 H   0  0  0  0  0  0  0  0  0  0  0  0
    9.8008    2.6835   -8.2984 H   0  0  0  0  0  0  0  0  0  0  0  0
    9.3485    2.0467  -10.4331 H   0  0  0  0  0  0  0  0  0  0  0  0
    6.6741    0.5065  -10.5547 H   0  0  0  0  0  0  0  0  0  0  0  0
    5.4822    0.4537   -7.2356 H   0  0  0  0  0  0  0  0  0  0  0  0
  1  2  1  0  0  0  0
  1 17  1  0  0  0  0
  1 18  1  0  0  0  0
  1 19  1  0  0  0  0
  2  3  1  0  0  0  0
  2 20  1  0  0  0  0
  2 21  1  0  0  0  0
  3  4  1  0  0  0  0
  3 22  1  0  0  0  0
  3 23  1  0  0  0  0
  4  5  1  0  0  0  0
  4 24  1  0  0  0  0
  4 25  1  0  0  0  0
  5  6  1  0  0  0  0
  5 26  1  0  0  0  0
  5 27  1  0  0  0  0
  6  7  1  0  0  0  0
  6 28  1  0  0  0  0
  6 29  1  0  0  0  0
  7  8  1  0  0  0  0
  7 30  1  0  0  0  0
  7 31  1  0  0  0  0
  8  9  1  0  0  0  0
  8 32  1  0  0  0  0
  8 33  1  0  0  0  0
  9 10  1  0  0  0  0
  9 16  2  0  0  0  0
 10 11  2  0  0  0  0
 10 34  1  0  0  0  0
 11 12  1  0  0  0  0
 11 35  1  0  0  0  0
 12 13  1  0  0  0  0
 12 14  2  0  0  0  0
 13 36  1  0  0  0  0
 14 15  1  0  0  0  0
 14 16  1  0  0  0  0
 15 37  1  0  0  0  0
 16 38  1  0  0  0  0
M  END
>  <Line_Number>
13


> <IC50>
58000

$$$$
