CHEMBL4130000
 OpenBabel09302502333D

 51 54  0  0  0  0  0  0  0  0999 V2000
    1.2340   -1.1730    1.2428 O   0  0  0  0  0  0  0  0  0  0  0  0
    2.3855   -0.8732    0.9433 C   0  0  0  0  0  0  0  0  0  0  0  0
    3.0607    0.3602    1.5183 C   0  0  0  0  0  0  0  0  0  0  0  0
    2.1151    1.1688    2.4125 C   0  0  0  0  0  0  0  0  0  0  0  0
    2.9902    2.6611    2.9798 S   0  0  0  0  0  0  0  0  0  0  0  0
    1.8024    3.4397    3.9804 C   0  0  0  0  0  0  0  0  0  0  0  0
    0.8085    2.8477    4.6110 N   0  0  0  0  0  0  0  0  0  0  0  0
    0.1460    3.8313    5.3269 N   0  0  0  0  0  0  0  0  0  0  0  0
    0.7827    4.9580    5.0811 C   0  0  0  0  0  0  0  0  0  0  0  0
    0.4983    6.3355    5.5578 C   0  0  0  0  0  0  0  0  0  0  0  0
    1.2871    6.7006    6.7772 C   0  0  0  0  0  0  0  0  0  0  0  0
    1.2446    6.1152    8.0320 C   0  0  0  0  0  0  0  0  0  0  0  0
    2.4175    6.8465    9.0606 S   0  0  0  0  0  0  0  0  0  0  0  0
    2.8060    7.9353    7.8088 C   0  0  0  0  0  0  0  0  0  0  0  0
    3.7666    8.8668    8.1043 N   0  0  0  0  0  0  0  0  0  0  0  0
    3.9627    9.9453    7.2696 C   0  0  0  0  0  0  0  0  0  0  0  0
    3.2741   10.2466    6.2976 O   0  0  0  0  0  0  0  0  0  0  0  0
    5.0828   10.8630    7.6166 C   0  0  0  0  0  0  0  0  0  0  0  0
    6.2657   10.4214    8.2215 C   0  0  0  0  0  0  0  0  0  0  0  0
    7.3134   11.3243    8.4330 C   0  0  0  0  0  0  0  0  0  0  0  0
    7.1853   12.6593    8.0435 C   0  0  0  0  0  0  0  0  0  0  0  0
    6.0079   13.1030    7.4473 C   0  0  0  0  0  0  0  0  0  0  0  0
    4.9615   12.2077    7.2334 C   0  0  0  0  0  0  0  0  0  0  0  0
    2.1628    7.7681    6.6835 N   0  0  0  0  0  0  0  0  0  0  0  0
    1.8445    4.7874    4.2340 O   0  0  0  0  0  0  0  0  0  0  0  0
    3.2158   -1.5685    0.0696 N   0  0  0  0  0  0  0  0  0  0  0  0
    2.8867   -2.7321   -0.6714 C   0  0  0  0  0  0  0  0  0  0  0  0
    1.6458   -3.3731   -0.6065 C   0  0  0  0  0  0  0  0  0  0  0  0
    1.3988   -4.5264   -1.3567 C   0  0  0  0  0  0  0  0  0  0  0  0
    2.3819   -5.0501   -2.1900 C   0  0  0  0  0  0  0  0  0  0  0  0
    3.6164   -4.4153   -2.2773 C   0  0  0  0  0  0  0  0  0  0  0  0
    3.8686   -3.2648   -1.5225 C   0  0  0  0  0  0  0  0  0  0  0  0
    3.4064    0.9744    0.6770 H   0  0  0  0  0  0  0  0  0  0  0  0
    3.9350    0.0287    2.0928 H   0  0  0  0  0  0  0  0  0  0  0  0
    1.7967    0.5702    3.2729 H   0  0  0  0  0  0  0  0  0  0  0  0
    1.2192    1.4642    1.8543 H   0  0  0  0  0  0  0  0  0  0  0  0
   -0.5716    6.4440    5.7681 H   0  0  0  0  0  0  0  0  0  0  0  0
    0.7294    7.0445    4.7521 H   0  0  0  0  0  0  0  0  0  0  0  0
    0.6261    5.2965    8.3738 H   0  0  0  0  0  0  0  0  0  0  0  0
    4.2397    8.7811    8.9897 H   0  0  0  0  0  0  0  0  0  0  0  0
    6.4112    9.3796    8.4891 H   0  0  0  0  0  0  0  0  0  0  0  0
    8.2445   10.9843    8.8809 H   0  0  0  0  0  0  0  0  0  0  0  0
    8.0099   13.3528    8.1905 H   0  0  0  0  0  0  0  0  0  0  0  0
    5.9073   14.1384    7.1308 H   0  0  0  0  0  0  0  0  0  0  0  0
    4.0511   12.5560    6.7471 H   0  0  0  0  0  0  0  0  0  0  0  0
    4.1546   -1.2044   -0.0545 H   0  0  0  0  0  0  0  0  0  0  0  0
    0.8353   -3.0131    0.0208 H   0  0  0  0  0  0  0  0  0  0  0  0
    0.4297   -5.0140   -1.2843 H   0  0  0  0  0  0  0  0  0  0  0  0
    2.1840   -5.9491   -2.7685 H   0  0  0  0  0  0  0  0  0  0  0  0
    4.3844   -4.8164   -2.9334 H   0  0  0  0  0  0  0  0  0  0  0  0
    4.8438   -2.7938   -1.6145 H   0  0  0  0  0  0  0  0  0  0  0  0
  1  2  2  0  0  0  0
  2  3  1  0  0  0  0
  2 26  1  0  0  0  0
  3  4  1  0  0  0  0
  3 33  1  0  0  0  0
  3 34  1  0  0  0  0
  4  5  1  0  0  0  0
  4 35  1  0  0  0  0
  4 36  1  0  0  0  0
  5  6  1  0  0  0  0
  6  7  2  0  0  0  0
  6 25  1  0  0  0  0
  7  8  1  0  0  0  0
  8  9  2  0  0  0  0
  9 10  1  0  0  0  0
  9 25  1  0  0  0  0
 10 11  1  0  0  0  0
 10 37  1  0  0  0  0
 10 38  1  0  0  0  0
 11 12  2  0  0  0  0
 11 24  1  0  0  0  0
 12 13  1  0  0  0  0
 12 39  1  0  0  0  0
 13 14  1  0  0  0  0
 14 15  1  0  0  0  0
 14 24  2  0  0  0  0
 15 16  1  0  0  0  0
 15 40  1  0  0  0  0
 16 17  2  0  0  0  0
 16 18  1  0  0  0  0
 18 19  1  0  0  0  0
 18 23  2  0  0  0  0
 19 20  2  0  0  0  0
 19 41  1  0  0  0  0
 20 21  1  0  0  0  0
 20 42  1  0  0  0  0
 21 22  2  0  0  0  0
 21 43  1  0  0  0  0
 22 23  1  0  0  0  0
 22 44  1  0  0  0  0
 23 45  1  0  0  0  0
 26 27  1  0  0  0  0
 26 46  1  0  0  0  0
 27 28  1  0  0  0  0
 27 32  2  0  0  0  0
 28 29  2  0  0  0  0
 28 47  1  0  0  0  0
 29 30  1  0  0  0  0
 29 48  1  0  0  0  0
 30 31  2  0  0  0  0
 30 49  1  0  0  0  0
 31 32  1  0  0  0  0
 31 50  1  0  0  0  0
 32 51  1  0  0  0  0
M  END
>  <Line_Number>
140


> <IC50>
2950

$$$$
