CHEMBL4126307
 OpenBabel09302502333D

 54 57  0  0  0  0  0  0  0  0999 V2000
  -13.7330   -4.8472   -5.3565 C   0  0  0  0  0  0  0  0  0  0  0  0
  -12.7798   -3.9981   -4.5698 C   0  0  0  0  0  0  0  0  0  0  0  0
  -12.9890   -2.6249   -4.4570 C   0  0  0  0  0  0  0  0  0  0  0  0
  -12.1085   -1.8263   -3.7214 C   0  0  0  0  0  0  0  0  0  0  0  0
  -10.9967   -2.3734   -3.0773 C   0  0  0  0  0  0  0  0  0  0  0  0
  -10.0765   -1.6016   -2.3200 N   0  0  0  0  0  0  0  0  0  0  0  0
  -10.1442   -0.2314   -2.1029 C   0  0  0  0  0  0  0  0  0  0  0  0
  -11.0196    0.5133   -2.5320 O   0  0  0  0  0  0  0  0  0  0  0  0
   -9.0071    0.3214   -1.2608 C   0  0  0  0  0  0  0  0  0  0  0  0
   -9.2128    1.8302   -1.0983 C   0  0  0  0  0  0  0  0  0  0  0  0
   -7.8793    2.6210   -0.1515 S   0  0  0  0  0  0  0  0  0  0  0  0
   -8.4662    4.2629   -0.1385 C   0  0  0  0  0  0  0  0  0  0  0  0
   -9.7345    4.6166   -0.2094 N   0  0  0  0  0  0  0  0  0  0  0  0
   -9.7734    5.9966   -0.1637 N   0  0  0  0  0  0  0  0  0  0  0  0
   -8.5228    6.3981   -0.0639 C   0  0  0  0  0  0  0  0  0  0  0  0
   -7.9801    7.7805   -0.0724 C   0  0  0  0  0  0  0  0  0  0  0  0
   -7.8561    8.4001    1.2866 C   0  0  0  0  0  0  0  0  0  0  0  0
   -8.8586    8.6355    2.2130 C   0  0  0  0  0  0  0  0  0  0  0  0
   -8.2172    9.4627    3.5797 S   0  0  0  0  0  0  0  0  0  0  0  0
   -6.6715    9.4206    2.8580 C   0  0  0  0  0  0  0  0  0  0  0  0
   -5.6653    9.9757    3.6079 N   0  0  0  0  0  0  0  0  0  0  0  0
   -4.3470    9.8780    3.2081 C   0  0  0  0  0  0  0  0  0  0  0  0
   -3.9527    9.2988    2.1992 O   0  0  0  0  0  0  0  0  0  0  0  0
   -3.3072   10.4962    4.0965 C   0  0  0  0  0  0  0  0  0  0  0  0
   -3.5898   11.3393    5.1799 C   0  0  0  0  0  0  0  0  0  0  0  0
   -2.5455   11.8764    5.9437 C   0  0  0  0  0  0  0  0  0  0  0  0
   -1.2173   11.5855    5.6306 C   0  0  0  0  0  0  0  0  0  0  0  0
   -0.9246   10.7543    4.5566 C   0  0  0  0  0  0  0  0  0  0  0  0
   -1.9618   10.2148    3.7959 C   0  0  0  0  0  0  0  0  0  0  0  0
   -6.6096    8.8683    1.6750 N   0  0  0  0  0  0  0  0  0  0  0  0
   -7.6345    5.3526   -0.0401 O   0  0  0  0  0  0  0  0  0  0  0  0
  -10.7853   -3.7541   -3.1905 C   0  0  0  0  0  0  0  0  0  0  0  0
  -11.6698   -4.5590   -3.9301 C   0  0  0  0  0  0  0  0  0  0  0  0
  -14.5281   -4.2399   -5.8051 H   0  0  0  0  0  0  0  0  0  0  0  0
  -14.2099   -5.5877   -4.7072 H   0  0  0  0  0  0  0  0  0  0  0  0
  -13.2097   -5.3575   -6.1709 H   0  0  0  0  0  0  0  0  0  0  0  0
  -13.8405   -2.1505   -4.9387 H   0  0  0  0  0  0  0  0  0  0  0  0
  -12.3359   -0.7671   -3.6794 H   0  0  0  0  0  0  0  0  0  0  0  0
   -9.3036   -2.1044   -1.9007 H   0  0  0  0  0  0  0  0  0  0  0  0
   -8.0603    0.1056   -1.7685 H   0  0  0  0  0  0  0  0  0  0  0  0
   -9.0150   -0.1807   -0.2867 H   0  0  0  0  0  0  0  0  0  0  0  0
  -10.1679    2.0161   -0.5935 H   0  0  0  0  0  0  0  0  0  0  0  0
   -9.2562    2.3083   -2.0842 H   0  0  0  0  0  0  0  0  0  0  0  0
   -8.6313    8.4169   -0.6847 H   0  0  0  0  0  0  0  0  0  0  0  0
   -7.0001    7.7826   -0.5655 H   0  0  0  0  0  0  0  0  0  0  0  0
   -9.9081    8.3808    2.1513 H   0  0  0  0  0  0  0  0  0  0  0  0
   -5.9380   10.3770    4.4884 H   0  0  0  0  0  0  0  0  0  0  0  0
   -4.6024   11.6144    5.4515 H   0  0  0  0  0  0  0  0  0  0  0  0
   -2.7630   12.5322    6.7843 H   0  0  0  0  0  0  0  0  0  0  0  0
   -0.4066   12.0033    6.2203 H   0  0  0  0  0  0  0  0  0  0  0  0
    0.1088   10.5267    4.3077 H   0  0  0  0  0  0  0  0  0  0  0  0
   -1.7124    9.5691    2.9550 H   0  0  0  0  0  0  0  0  0  0  0  0
   -9.9364   -4.2330   -2.7098 H   0  0  0  0  0  0  0  0  0  0  0  0
  -11.4902   -5.6295   -4.0056 H   0  0  0  0  0  0  0  0  0  0  0  0
  1  2  1  0  0  0  0
  1 34  1  0  0  0  0
  1 35  1  0  0  0  0
  1 36  1  0  0  0  0
  2  3  1  0  0  0  0
  2 33  2  0  0  0  0
  3  4  2  0  0  0  0
  3 37  1  0  0  0  0
  4  5  1  0  0  0  0
  4 38  1  0  0  0  0
  5  6  1  0  0  0  0
  5 32  2  0  0  0  0
  6  7  1  0  0  0  0
  6 39  1  0  0  0  0
  7  8  2  0  0  0  0
  7  9  1  0  0  0  0
  9 10  1  0  0  0  0
  9 40  1  0  0  0  0
  9 41  1  0  0  0  0
 10 11  1  0  0  0  0
 10 42  1  0  0  0  0
 10 43  1  0  0  0  0
 11 12  1  0  0  0  0
 12 13  2  0  0  0  0
 12 31  1  0  0  0  0
 13 14  1  0  0  0  0
 14 15  2  0  0  0  0
 15 16  1  0  0  0  0
 15 31  1  0  0  0  0
 16 17  1  0  0  0  0
 16 44  1  0  0  0  0
 16 45  1  0  0  0  0
 17 18  2  0  0  0  0
 17 30  1  0  0  0  0
 18 19  1  0  0  0  0
 18 46  1  0  0  0  0
 19 20  1  0  0  0  0
 20 21  1  0  0  0  0
 20 30  2  0  0  0  0
 21 22  1  0  0  0  0
 21 47  1  0  0  0  0
 22 23  2  0  0  0  0
 22 24  1  0  0  0  0
 24 25  1  0  0  0  0
 24 29  2  0  0  0  0
 25 26  2  0  0  0  0
 25 48  1  0  0  0  0
 26 27  1  0  0  0  0
 26 49  1  0  0  0  0
 27 28  2  0  0  0  0
 27 50  1  0  0  0  0
 28 29  1  0  0  0  0
 28 51  1  0  0  0  0
 29 52  1  0  0  0  0
 32 33  1  0  0  0  0
 32 53  1  0  0  0  0
 33 54  1  0  0  0  0
M  END
>  <Line_Number>
141


> <IC50>
29180

$$$$
