CHEMBL4127102
 OpenBabel09302502333D

 58 61  0  0  0  0  0  0  0  0999 V2000
    0.7662    0.4930    0.7179 C   0  0  0  0  0  0  0  0  0  0  0  0
    2.2599    0.7463    0.7738 C   0  0  0  0  0  0  0  0  0  0  0  0
    2.8844   -0.2208    1.6274 O   0  0  0  0  0  0  0  0  0  0  0  0
    4.2443   -0.1028    1.7593 C   0  0  0  0  0  0  0  0  0  0  0  0
    5.0164    0.8713    1.1389 C   0  0  0  0  0  0  0  0  0  0  0  0
    6.3974    0.9074    1.3230 C   0  0  0  0  0  0  0  0  0  0  0  0
    7.0555   -0.0255    2.1266 C   0  0  0  0  0  0  0  0  0  0  0  0
    8.4654   -0.0217    2.3021 N   0  0  0  0  0  0  0  0  0  0  0  0
    9.3488    0.8608    1.6959 C   0  0  0  0  0  0  0  0  0  0  0  0
    9.0203    1.7706    0.9341 O   0  0  0  0  0  0  0  0  0  0  0  0
   10.8164    0.6375    2.0169 C   0  0  0  0  0  0  0  0  0  0  0  0
   11.6349    1.7084    1.2792 C   0  0  0  0  0  0  0  0  0  0  0  0
   13.4278    1.5576    1.5357 S   0  0  0  0  0  0  0  0  0  0  0  0
   13.9780    2.9155    0.5838 C   0  0  0  0  0  0  0  0  0  0  0  0
   13.2701    4.0011    0.3350 N   0  0  0  0  0  0  0  0  0  0  0  0
   14.0577    4.8268   -0.4423 N   0  0  0  0  0  0  0  0  0  0  0  0
   15.1941    4.1868   -0.6221 C   0  0  0  0  0  0  0  0  0  0  0  0
   16.4069    4.6239   -1.3538 C   0  0  0  0  0  0  0  0  0  0  0  0
   16.4027    4.2396   -2.8017 C   0  0  0  0  0  0  0  0  0  0  0  0
   15.5160    4.6422   -3.7870 C   0  0  0  0  0  0  0  0  0  0  0  0
   16.0285    4.0467   -5.3181 S   0  0  0  0  0  0  0  0  0  0  0  0
   17.3298    3.2570   -4.5522 C   0  0  0  0  0  0  0  0  0  0  0  0
   18.1458    2.5381   -5.3827 N   0  0  0  0  0  0  0  0  0  0  0  0
   19.0441    1.6266   -4.8699 C   0  0  0  0  0  0  0  0  0  0  0  0
   19.1579    1.3010   -3.6938 O   0  0  0  0  0  0  0  0  0  0  0  0
   19.9080    0.9302   -5.8645 C   0  0  0  0  0  0  0  0  0  0  0  0
   20.3249    1.5328   -7.0581 C   0  0  0  0  0  0  0  0  0  0  0  0
   21.1971    0.8514   -7.9130 C   0  0  0  0  0  0  0  0  0  0  0  0
   21.6551   -0.4248   -7.5812 C   0  0  0  0  0  0  0  0  0  0  0  0
   21.2384   -1.0310   -6.3985 C   0  0  0  0  0  0  0  0  0  0  0  0
   20.3686   -0.3558   -5.5426 C   0  0  0  0  0  0  0  0  0  0  0  0
   17.4303    3.4318   -3.2609 N   0  0  0  0  0  0  0  0  0  0  0  0
   15.2248    2.9725    0.0137 O   0  0  0  0  0  0  0  0  0  0  0  0
    6.2797   -0.9999    2.7676 C   0  0  0  0  0  0  0  0  0  0  0  0
    4.8829   -1.0368    2.5803 C   0  0  0  0  0  0  0  0  0  0  0  0
    0.2865    1.1962    0.0296 H   0  0  0  0  0  0  0  0  0  0  0  0
    0.3182    0.6131    1.7088 H   0  0  0  0  0  0  0  0  0  0  0  0
    0.5558   -0.5274    0.3841 H   0  0  0  0  0  0  0  0  0  0  0  0
    2.4256    1.7572    1.1660 H   0  0  0  0  0  0  0  0  0  0  0  0
    2.6631    0.6673   -0.2435 H   0  0  0  0  0  0  0  0  0  0  0  0
    4.5890    1.6318    0.4941 H   0  0  0  0  0  0  0  0  0  0  0  0
    6.9191    1.7025    0.8029 H   0  0  0  0  0  0  0  0  0  0  0  0
    8.8540   -0.7413    2.9027 H   0  0  0  0  0  0  0  0  0  0  0  0
   11.0986   -0.3681    1.6849 H   0  0  0  0  0  0  0  0  0  0  0  0
   10.9577    0.7142    3.0999 H   0  0  0  0  0  0  0  0  0  0  0  0
   11.3148    2.7033    1.6116 H   0  0  0  0  0  0  0  0  0  0  0  0
   11.4454    1.6407    0.2008 H   0  0  0  0  0  0  0  0  0  0  0  0
   17.2989    4.2112   -0.8672 H   0  0  0  0  0  0  0  0  0  0  0  0
   16.4981    5.7151   -1.2859 H   0  0  0  0  0  0  0  0  0  0  0  0
   14.6339    5.2607   -3.6910 H   0  0  0  0  0  0  0  0  0  0  0  0
   17.9692    2.6086   -6.3726 H   0  0  0  0  0  0  0  0  0  0  0  0
   20.0220    2.5417   -7.3197 H   0  0  0  0  0  0  0  0  0  0  0  0
   21.5399    1.3237   -8.8307 H   0  0  0  0  0  0  0  0  0  0  0  0
   22.3496   -0.9431   -8.2383 H   0  0  0  0  0  0  0  0  0  0  0  0
   21.6005   -2.0208   -6.1312 H   0  0  0  0  0  0  0  0  0  0  0  0
   20.0595   -0.8285   -4.6113 H   0  0  0  0  0  0  0  0  0  0  0  0
    6.7339   -1.7455    3.4146 H   0  0  0  0  0  0  0  0  0  0  0  0
    4.2912   -1.8031    3.0788 H   0  0  0  0  0  0  0  0  0  0  0  0
  1  2  1  0  0  0  0
  1 36  1  0  0  0  0
  1 37  1  0  0  0  0
  1 38  1  0  0  0  0
  2  3  1  0  0  0  0
  2 39  1  0  0  0  0
  2 40  1  0  0  0  0
  3  4  1  0  0  0  0
  4  5  1  0  0  0  0
  4 35  2  0  0  0  0
  5  6  2  0  0  0  0
  5 41  1  0  0  0  0
  6  7  1  0  0  0  0
  6 42  1  0  0  0  0
  7  8  1  0  0  0  0
  7 34  2  0  0  0  0
  8  9  1  0  0  0  0
  8 43  1  0  0  0  0
  9 10  2  0  0  0  0
  9 11  1  0  0  0  0
 11 12  1  0  0  0  0
 11 44  1  0  0  0  0
 11 45  1  0  0  0  0
 12 13  1  0  0  0  0
 12 46  1  0  0  0  0
 12 47  1  0  0  0  0
 13 14  1  0  0  0  0
 14 15  2  0  0  0  0
 14 33  1  0  0  0  0
 15 16  1  0  0  0  0
 16 17  2  0  0  0  0
 17 18  1  0  0  0  0
 17 33  1  0  0  0  0
 18 19  1  0  0  0  0
 18 48  1  0  0  0  0
 18 49  1  0  0  0  0
 19 20  2  0  0  0  0
 19 32  1  0  0  0  0
 20 21  1  0  0  0  0
 20 50  1  0  0  0  0
 21 22  1  0  0  0  0
 22 23  1  0  0  0  0
 22 32  2  0  0  0  0
 23 24  1  0  0  0  0
 23 51  1  0  0  0  0
 24 25  2  0  0  0  0
 24 26  1  0  0  0  0
 26 27  1  0  0  0  0
 26 31  2  0  0  0  0
 27 28  2  0  0  0  0
 27 52  1  0  0  0  0
 28 29  1  0  0  0  0
 28 53  1  0  0  0  0
 29 30  2  0  0  0  0
 29 54  1  0  0  0  0
 30 31  1  0  0  0  0
 30 55  1  0  0  0  0
 31 56  1  0  0  0  0
 34 35  1  0  0  0  0
 34 57  1  0  0  0  0
 35 58  1  0  0  0  0
M  END
>  <Line_Number>
142


> <IC50>
23240

$$$$
