CHEMBL4127272
 OpenBabel09302502333D

 57 60  0  0  0  0  0  0  0  0999 V2000
   -5.0736  -14.9336    0.0517 C   0  0  0  0  0  0  0  0  0  0  0  0
   -5.2841  -13.8669   -0.9816 C   0  0  0  0  0  0  0  0  0  0  0  0
   -5.6122  -14.2238   -2.2825 C   0  0  0  0  0  0  0  0  0  0  0  0
   -5.7914  -13.2373   -3.2450 C   0  0  0  0  0  0  0  0  0  0  0  0
   -5.6527  -11.8624   -2.9467 C   0  0  0  0  0  0  0  0  0  0  0  0
   -5.9345  -10.9343   -4.0946 C   0  0  0  0  0  0  0  0  0  0  0  0
   -5.2963  -11.4789   -1.6394 C   0  0  0  0  0  0  0  0  0  0  0  0
   -5.1015  -10.1502   -1.1503 N   0  0  0  0  0  0  0  0  0  0  0  0
   -4.7989   -8.9910   -1.8416 C   0  0  0  0  0  0  0  0  0  0  0  0
   -4.5745   -8.8824   -3.0413 O   0  0  0  0  0  0  0  0  0  0  0  0
   -4.7312   -7.7368   -0.9789 C   0  0  0  0  0  0  0  0  0  0  0  0
   -6.1050   -7.0843   -0.9022 C   0  0  0  0  0  0  0  0  0  0  0  0
   -6.0340   -5.4461   -0.0960 S   0  0  0  0  0  0  0  0  0  0  0  0
   -7.7310   -5.0532   -0.1011 C   0  0  0  0  0  0  0  0  0  0  0  0
   -8.6934   -5.9536   -0.1187 N   0  0  0  0  0  0  0  0  0  0  0  0
   -9.8864   -5.2695   -0.1223 N   0  0  0  0  0  0  0  0  0  0  0  0
   -9.5770   -3.9899   -0.1082 C   0  0  0  0  0  0  0  0  0  0  0  0
  -10.4885   -2.8227   -0.0697 C   0  0  0  0  0  0  0  0  0  0  0  0
  -10.9016   -2.3453   -1.4261 C   0  0  0  0  0  0  0  0  0  0  0  0
  -11.5898   -3.0404   -2.4075 C   0  0  0  0  0  0  0  0  0  0  0  0
  -11.9262   -2.0015   -3.7387 S   0  0  0  0  0  0  0  0  0  0  0  0
  -11.0963   -0.7449   -2.9417 C   0  0  0  0  0  0  0  0  0  0  0  0
  -11.0211    0.4393   -3.6248 N   0  0  0  0  0  0  0  0  0  0  0  0
  -10.1917    1.4480   -3.1813 C   0  0  0  0  0  0  0  0  0  0  0  0
   -9.4188    1.3928   -2.2305 O   0  0  0  0  0  0  0  0  0  0  0  0
  -10.2061    2.7067   -3.9737 C   0  0  0  0  0  0  0  0  0  0  0  0
  -11.3610    3.1889   -4.5999 C   0  0  0  0  0  0  0  0  0  0  0  0
  -11.3259    4.4190   -5.2640 C   0  0  0  0  0  0  0  0  0  0  0  0
  -10.1465    5.1652   -5.3042 C   0  0  0  0  0  0  0  0  0  0  0  0
   -8.9947    4.6867   -4.6831 C   0  0  0  0  0  0  0  0  0  0  0  0
   -9.0255    3.4625   -4.0172 C   0  0  0  0  0  0  0  0  0  0  0  0
  -10.6268   -1.0299   -1.7554 N   0  0  0  0  0  0  0  0  0  0  0  0
   -8.2222   -3.7710   -0.0776 O   0  0  0  0  0  0  0  0  0  0  0  0
   -5.1415  -12.5000   -0.6717 C   0  0  0  0  0  0  0  0  0  0  0  0
   -5.2606  -15.9318   -0.3631 H   0  0  0  0  0  0  0  0  0  0  0  0
   -5.7582  -14.7958    0.8937 H   0  0  0  0  0  0  0  0  0  0  0  0
   -4.0400  -14.9161    0.4103 H   0  0  0  0  0  0  0  0  0  0  0  0
   -5.7354  -15.2679   -2.5644 H   0  0  0  0  0  0  0  0  0  0  0  0
   -6.0591  -13.5511   -4.2536 H   0  0  0  0  0  0  0  0  0  0  0  0
   -6.4372  -11.4577   -4.9169 H   0  0  0  0  0  0  0  0  0  0  0  0
   -5.0011  -10.5513   -4.5137 H   0  0  0  0  0  0  0  0  0  0  0  0
   -6.6115  -10.1309   -3.7914 H   0  0  0  0  0  0  0  0  0  0  0  0
   -5.0058  -10.0876   -0.1436 H   0  0  0  0  0  0  0  0  0  0  0  0
   -4.0047   -7.0624   -1.4524 H   0  0  0  0  0  0  0  0  0  0  0  0
   -4.3392   -7.9793    0.0148 H   0  0  0  0  0  0  0  0  0  0  0  0
   -6.7841   -7.7345   -0.3416 H   0  0  0  0  0  0  0  0  0  0  0  0
   -6.5198   -6.9500   -1.9075 H   0  0  0  0  0  0  0  0  0  0  0  0
  -10.0197   -2.0022    0.4869 H   0  0  0  0  0  0  0  0  0  0  0  0
  -11.3927   -3.0956    0.4890 H   0  0  0  0  0  0  0  0  0  0  0  0
  -11.9161   -4.0717   -2.4019 H   0  0  0  0  0  0  0  0  0  0  0  0
  -11.4974    0.4918   -4.5115 H   0  0  0  0  0  0  0  0  0  0  0  0
  -12.3027    2.6518   -4.5421 H   0  0  0  0  0  0  0  0  0  0  0  0
  -12.2256    4.8105   -5.7332 H   0  0  0  0  0  0  0  0  0  0  0  0
  -10.1275    6.1294   -5.8066 H   0  0  0  0  0  0  0  0  0  0  0  0
   -8.0782    5.2705   -4.7012 H   0  0  0  0  0  0  0  0  0  0  0  0
   -8.1280    3.1028   -3.5155 H   0  0  0  0  0  0  0  0  0  0  0  0
   -4.8753  -12.2436    0.3522 H   0  0  0  0  0  0  0  0  0  0  0  0
  1  2  1  0  0  0  0
  1 35  1  0  0  0  0
  1 36  1  0  0  0  0
  1 37  1  0  0  0  0
  2  3  1  0  0  0  0
  2 34  2  0  0  0  0
  3  4  2  0  0  0  0
  3 38  1  0  0  0  0
  4  5  1  0  0  0  0
  4 39  1  0  0  0  0
  5  6  1  0  0  0  0
  5  7  2  0  0  0  0
  6 40  1  0  0  0  0
  6 41  1  0  0  0  0
  6 42  1  0  0  0  0
  7  8  1  0  0  0  0
  7 34  1  0  0  0  0
  8  9  1  0  0  0  0
  8 43  1  0  0  0  0
  9 10  2  0  0  0  0
  9 11  1  0  0  0  0
 11 12  1  0  0  0  0
 11 44  1  0  0  0  0
 11 45  1  0  0  0  0
 12 13  1  0  0  0  0
 12 46  1  0  0  0  0
 12 47  1  0  0  0  0
 13 14  1  0  0  0  0
 14 15  2  0  0  0  0
 14 33  1  0  0  0  0
 15 16  1  0  0  0  0
 16 17  2  0  0  0  0
 17 18  1  0  0  0  0
 17 33  1  0  0  0  0
 18 19  1  0  0  0  0
 18 48  1  0  0  0  0
 18 49  1  0  0  0  0
 19 20  2  0  0  0  0
 19 32  1  0  0  0  0
 20 21  1  0  0  0  0
 20 50  1  0  0  0  0
 21 22  1  0  0  0  0
 22 23  1  0  0  0  0
 22 32  2  0  0  0  0
 23 24  1  0  0  0  0
 23 51  1  0  0  0  0
 24 25  2  0  0  0  0
 24 26  1  0  0  0  0
 26 27  1  0  0  0  0
 26 31  2  0  0  0  0
 27 28  2  0  0  0  0
 27 52  1  0  0  0  0
 28 29  1  0  0  0  0
 28 53  1  0  0  0  0
 29 30  2  0  0  0  0
 29 54  1  0  0  0  0
 30 31  1  0  0  0  0
 30 55  1  0  0  0  0
 31 56  1  0  0  0  0
 34 57  1  0  0  0  0
M  END
>  <Line_Number>
143


> <IC50>
15250

$$$$
