CHEMBL4129997
 OpenBabel09302502333D

 57 60  0  0  0  0  0  0  0  0999 V2000
    8.8071   -4.4633   -8.1346 C   0  0  0  0  0  0  0  0  0  0  0  0
    8.8843   -3.1634   -7.3494 C   0  0  0  0  0  0  0  0  0  0  0  0
    9.1021   -3.3541   -5.8633 C   0  0  0  0  0  0  0  0  0  0  0  0
   10.4384   -3.5780   -5.4562 C   0  0  0  0  0  0  0  0  0  0  0  0
   10.7908   -3.6199   -4.1109 C   0  0  0  0  0  0  0  0  0  0  0  0
    9.8096   -3.4508   -3.1472 C   0  0  0  0  0  0  0  0  0  0  0  0
    8.4740   -3.2754   -3.5255 C   0  0  0  0  0  0  0  0  0  0  0  0
    8.0920   -3.2327   -4.8808 C   0  0  0  0  0  0  0  0  0  0  0  0
    6.7278   -3.0868   -5.2676 N   0  0  0  0  0  0  0  0  0  0  0  0
    5.6804   -2.7848   -4.4125 C   0  0  0  0  0  0  0  0  0  0  0  0
    5.7775   -2.4867   -3.2245 O   0  0  0  0  0  0  0  0  0  0  0  0
    4.3156   -2.7634   -5.0699 C   0  0  0  0  0  0  0  0  0  0  0  0
    4.0800   -1.3917   -5.6821 C   0  0  0  0  0  0  0  0  0  0  0  0
    2.3571   -1.2187   -6.2453 S   0  0  0  0  0  0  0  0  0  0  0  0
    2.4487    0.3359   -7.0194 C   0  0  0  0  0  0  0  0  0  0  0  0
    3.5672    0.8956   -7.4356 N   0  0  0  0  0  0  0  0  0  0  0  0
    3.2198    2.0958   -8.0184 N   0  0  0  0  0  0  0  0  0  0  0  0
    1.9096    2.1892   -7.9199 C   0  0  0  0  0  0  0  0  0  0  0  0
    1.0081    3.2848   -8.3653 C   0  0  0  0  0  0  0  0  0  0  0  0
    0.3868    3.0197   -9.7023 C   0  0  0  0  0  0  0  0  0  0  0  0
    1.0234    2.8386  -10.9190 C   0  0  0  0  0  0  0  0  0  0  0  0
   -0.1392    2.5110  -12.1471 S   0  0  0  0  0  0  0  0  0  0  0  0
   -1.3832    2.7385  -11.0036 C   0  0  0  0  0  0  0  0  0  0  0  0
   -2.6603    2.6297  -11.4875 N   0  0  0  0  0  0  0  0  0  0  0  0
   -3.7252    3.0487  -10.7173 C   0  0  0  0  0  0  0  0  0  0  0  0
   -3.6569    3.6436   -9.6482 O   0  0  0  0  0  0  0  0  0  0  0  0
   -5.0881    2.7942  -11.2632 C   0  0  0  0  0  0  0  0  0  0  0  0
   -5.3959    1.6694  -12.0362 C   0  0  0  0  0  0  0  0  0  0  0  0
   -6.7221    1.4291  -12.4107 C   0  0  0  0  0  0  0  0  0  0  0  0
   -7.7370    2.3054  -12.0187 C   0  0  0  0  0  0  0  0  0  0  0  0
   -7.4327    3.4326  -11.2591 C   0  0  0  0  0  0  0  0  0  0  0  0
   -6.1135    3.6737  -10.8811 C   0  0  0  0  0  0  0  0  0  0  0  0
   -0.9955    2.9789   -9.7788 N   0  0  0  0  0  0  0  0  0  0  0  0
    1.3481    1.1072   -7.2924 O   0  0  0  0  0  0  0  0  0  0  0  0
    8.9097   -4.2555   -9.2058 H   0  0  0  0  0  0  0  0  0  0  0  0
    7.8444   -4.9590   -7.9789 H   0  0  0  0  0  0  0  0  0  0  0  0
    9.6010   -5.1634   -7.8540 H   0  0  0  0  0  0  0  0  0  0  0  0
    8.0002   -2.5487   -7.5465 H   0  0  0  0  0  0  0  0  0  0  0  0
    9.7245   -2.5706   -7.7378 H   0  0  0  0  0  0  0  0  0  0  0  0
   11.2258   -3.6897   -6.2012 H   0  0  0  0  0  0  0  0  0  0  0  0
   11.8276   -3.7648   -3.8182 H   0  0  0  0  0  0  0  0  0  0  0  0
   10.0713   -3.4582   -2.0919 H   0  0  0  0  0  0  0  0  0  0  0  0
    7.7648   -3.1890   -2.7078 H   0  0  0  0  0  0  0  0  0  0  0  0
    6.5119   -3.2401   -6.2442 H   0  0  0  0  0  0  0  0  0  0  0  0
    3.5770   -2.9864   -4.2881 H   0  0  0  0  0  0  0  0  0  0  0  0
    4.2469   -3.5630   -5.8161 H   0  0  0  0  0  0  0  0  0  0  0  0
    4.7604   -1.2527   -6.5289 H   0  0  0  0  0  0  0  0  0  0  0  0
    4.2903   -0.6032   -4.9504 H   0  0  0  0  0  0  0  0  0  0  0  0
    1.5701    4.2252   -8.4113 H   0  0  0  0  0  0  0  0  0  0  0  0
    0.2203    3.4308   -7.6158 H   0  0  0  0  0  0  0  0  0  0  0  0
    2.0828    2.8590  -11.1366 H   0  0  0  0  0  0  0  0  0  0  0  0
   -2.7747    2.3451  -12.4463 H   0  0  0  0  0  0  0  0  0  0  0  0
   -4.6349    0.9440  -12.3076 H   0  0  0  0  0  0  0  0  0  0  0  0
   -6.9743    0.5416  -12.9853 H   0  0  0  0  0  0  0  0  0  0  0  0
   -8.7698    2.1003  -12.2896 H   0  0  0  0  0  0  0  0  0  0  0  0
   -8.2208    4.1098  -10.9397 H   0  0  0  0  0  0  0  0  0  0  0  0
   -5.8853    4.5433  -10.2650 H   0  0  0  0  0  0  0  0  0  0  0  0
  1  2  1  0  0  0  0
  1 35  1  0  0  0  0
  1 36  1  0  0  0  0
  1 37  1  0  0  0  0
  2  3  1  0  0  0  0
  2 38  1  0  0  0  0
  2 39  1  0  0  0  0
  3  4  1  0  0  0  0
  3  8  2  0  0  0  0
  4  5  2  0  0  0  0
  4 40  1  0  0  0  0
  5  6  1  0  0  0  0
  5 41  1  0  0  0  0
  6  7  2  0  0  0  0
  6 42  1  0  0  0  0
  7  8  1  0  0  0  0
  7 43  1  0  0  0  0
  8  9  1  0  0  0  0
  9 10  1  0  0  0  0
  9 44  1  0  0  0  0
 10 11  2  0  0  0  0
 10 12  1  0  0  0  0
 12 13  1  0  0  0  0
 12 45  1  0  0  0  0
 12 46  1  0  0  0  0
 13 14  1  0  0  0  0
 13 47  1  0  0  0  0
 13 48  1  0  0  0  0
 14 15  1  0  0  0  0
 15 16  2  0  0  0  0
 15 34  1  0  0  0  0
 16 17  1  0  0  0  0
 17 18  2  0  0  0  0
 18 19  1  0  0  0  0
 18 34  1  0  0  0  0
 19 20  1  0  0  0  0
 19 49  1  0  0  0  0
 19 50  1  0  0  0  0
 20 21  2  0  0  0  0
 20 33  1  0  0  0  0
 21 22  1  0  0  0  0
 21 51  1  0  0  0  0
 22 23  1  0  0  0  0
 23 24  1  0  0  0  0
 23 33  2  0  0  0  0
 24 25  1  0  0  0  0
 24 52  1  0  0  0  0
 25 26  2  0  0  0  0
 25 27  1  0  0  0  0
 27 28  1  0  0  0  0
 27 32  2  0  0  0  0
 28 29  2  0  0  0  0
 28 53  1  0  0  0  0
 29 30  1  0  0  0  0
 29 54  1  0  0  0  0
 30 31  2  0  0  0  0
 30 55  1  0  0  0  0
 31 32  1  0  0  0  0
 31 56  1  0  0  0  0
 32 57  1  0  0  0  0
M  END
>  <Line_Number>
144


> <IC50>
2580

$$$$
