CHEMBL4128510
 OpenBabel09302502333D

 57 60  0  0  0  0  0  0  0  0999 V2000
   -9.9344  -11.2856   -4.8112 C   0  0  0  0  0  0  0  0  0  0  0  0
   -9.4039  -10.0526   -4.1320 C   0  0  0  0  0  0  0  0  0  0  0  0
  -10.2447   -8.9465   -4.0207 C   0  0  0  0  0  0  0  0  0  0  0  0
   -9.8149   -7.7777   -3.3906 C   0  0  0  0  0  0  0  0  0  0  0  0
   -8.5371   -7.6733   -2.8420 C   0  0  0  0  0  0  0  0  0  0  0  0
   -8.0898   -6.4995   -2.1674 N   0  0  0  0  0  0  0  0  0  0  0  0
   -8.8520   -5.3492   -1.9701 C   0  0  0  0  0  0  0  0  0  0  0  0
  -10.0101   -5.1988   -2.3642 O   0  0  0  0  0  0  0  0  0  0  0  0
   -8.1674   -4.2179   -1.2088 C   0  0  0  0  0  0  0  0  0  0  0  0
   -9.1375   -3.0221   -1.0826 C   0  0  0  0  0  0  0  0  0  0  0  0
   -8.4000   -1.5849   -0.2243 S   0  0  0  0  0  0  0  0  0  0  0  0
   -9.7455   -0.4634   -0.2196 C   0  0  0  0  0  0  0  0  0  0  0  0
  -11.0139   -0.8199   -0.2204 N   0  0  0  0  0  0  0  0  0  0  0  0
  -11.7600    0.3408   -0.2051 N   0  0  0  0  0  0  0  0  0  0  0  0
  -10.9019    1.3366   -0.1966 C   0  0  0  0  0  0  0  0  0  0  0  0
  -11.1844    2.7956   -0.2501 C   0  0  0  0  0  0  0  0  0  0  0  0
  -11.3374    3.4230    1.1005 C   0  0  0  0  0  0  0  0  0  0  0  0
  -12.2438    3.1182    2.1035 C   0  0  0  0  0  0  0  0  0  0  0  0
  -11.9279    4.0883    3.4942 S   0  0  0  0  0  0  0  0  0  0  0  0
  -10.7024    4.8918    2.6262 C   0  0  0  0  0  0  0  0  0  0  0  0
  -10.0374    5.8831    3.2978 N   0  0  0  0  0  0  0  0  0  0  0  0
   -9.3012    6.8089    2.5903 C   0  0  0  0  0  0  0  0  0  0  0  0
   -9.2235    6.8902    1.3636 O   0  0  0  0  0  0  0  0  0  0  0  0
   -8.5838    7.8456    3.3809 C   0  0  0  0  0  0  0  0  0  0  0  0
   -8.1102    7.6245    4.6790 C   0  0  0  0  0  0  0  0  0  0  0  0
   -7.3486    8.6110    5.3144 C   0  0  0  0  0  0  0  0  0  0  0  0
   -7.0602    9.8113    4.6614 C   0  0  0  0  0  0  0  0  0  0  0  0
   -7.5436   10.0418    3.3768 C   0  0  0  0  0  0  0  0  0  0  0  0
   -8.3051    9.0638    2.7408 C   0  0  0  0  0  0  0  0  0  0  0  0
  -10.5001    4.4798    1.4039 N   0  0  0  0  0  0  0  0  0  0  0  0
   -9.5961    0.9065   -0.1982 O   0  0  0  0  0  0  0  0  0  0  0  0
   -7.6784   -8.7812   -2.9617 C   0  0  0  0  0  0  0  0  0  0  0  0
   -8.0991   -9.9708   -3.6068 C   0  0  0  0  0  0  0  0  0  0  0  0
   -7.1624  -11.1433   -3.7424 C   0  0  0  0  0  0  0  0  0  0  0  0
  -10.9736  -11.1468   -5.1322 H   0  0  0  0  0  0  0  0  0  0  0  0
   -9.9205  -12.1368   -4.1244 H   0  0  0  0  0  0  0  0  0  0  0  0
   -9.3469  -11.5169   -5.7044 H   0  0  0  0  0  0  0  0  0  0  0  0
  -11.2544   -8.9722   -4.4226 H   0  0  0  0  0  0  0  0  0  0  0  0
  -10.5399   -6.9754   -3.3526 H   0  0  0  0  0  0  0  0  0  0  0  0
   -7.1483   -6.5173   -1.7957 H   0  0  0  0  0  0  0  0  0  0  0  0
   -7.2664   -3.9261   -1.7589 H   0  0  0  0  0  0  0  0  0  0  0  0
   -7.8820   -4.5876   -0.2173 H   0  0  0  0  0  0  0  0  0  0  0  0
  -10.0410   -3.3364   -0.5462 H   0  0  0  0  0  0  0  0  0  0  0  0
   -9.4461   -2.6910   -2.0817 H   0  0  0  0  0  0  0  0  0  0  0  0
  -12.1057    2.9622   -0.8219 H   0  0  0  0  0  0  0  0  0  0  0  0
  -10.3843    3.3048   -0.8004 H   0  0  0  0  0  0  0  0  0  0  0  0
  -13.0276    2.3728    2.1054 H   0  0  0  0  0  0  0  0  0  0  0  0
  -10.2062    5.9689    4.2872 H   0  0  0  0  0  0  0  0  0  0  0  0
   -8.2747    6.6828    5.1928 H   0  0  0  0  0  0  0  0  0  0  0  0
   -6.9525    8.4345    6.3115 H   0  0  0  0  0  0  0  0  0  0  0  0
   -6.4430   10.5627    5.1480 H   0  0  0  0  0  0  0  0  0  0  0  0
   -7.3118   10.9686    2.8582 H   0  0  0  0  0  0  0  0  0  0  0  0
   -8.6637    9.2420    1.7276 H   0  0  0  0  0  0  0  0  0  0  0  0
   -6.6713   -8.7382   -2.5494 H   0  0  0  0  0  0  0  0  0  0  0  0
   -6.1842  -10.9396   -3.2975 H   0  0  0  0  0  0  0  0  0  0  0  0
   -7.0030  -11.3782   -4.8011 H   0  0  0  0  0  0  0  0  0  0  0  0
   -7.5806  -12.0243   -3.2430 H   0  0  0  0  0  0  0  0  0  0  0  0
  1  2  1  0  0  0  0
  1 35  1  0  0  0  0
  1 36  1  0  0  0  0
  1 37  1  0  0  0  0
  2  3  1  0  0  0  0
  2 33  2  0  0  0  0
  3  4  2  0  0  0  0
  3 38  1  0  0  0  0
  4  5  1  0  0  0  0
  4 39  1  0  0  0  0
  5  6  1  0  0  0  0
  5 32  2  0  0  0  0
  6  7  1  0  0  0  0
  6 40  1  0  0  0  0
  7  8  2  0  0  0  0
  7  9  1  0  0  0  0
  9 10  1  0  0  0  0
  9 41  1  0  0  0  0
  9 42  1  0  0  0  0
 10 11  1  0  0  0  0
 10 43  1  0  0  0  0
 10 44  1  0  0  0  0
 11 12  1  0  0  0  0
 12 13  2  0  0  0  0
 12 31  1  0  0  0  0
 13 14  1  0  0  0  0
 14 15  2  0  0  0  0
 15 16  1  0  0  0  0
 15 31  1  0  0  0  0
 16 17  1  0  0  0  0
 16 45  1  0  0  0  0
 16 46  1  0  0  0  0
 17 18  2  0  0  0  0
 17 30  1  0  0  0  0
 18 19  1  0  0  0  0
 18 47  1  0  0  0  0
 19 20  1  0  0  0  0
 20 21  1  0  0  0  0
 20 30  2  0  0  0  0
 21 22  1  0  0  0  0
 21 48  1  0  0  0  0
 22 23  2  0  0  0  0
 22 24  1  0  0  0  0
 24 25  1  0  0  0  0
 24 29  2  0  0  0  0
 25 26  2  0  0  0  0
 25 49  1  0  0  0  0
 26 27  1  0  0  0  0
 26 50  1  0  0  0  0
 27 28  2  0  0  0  0
 27 51  1  0  0  0  0
 28 29  1  0  0  0  0
 28 52  1  0  0  0  0
 29 53  1  0  0  0  0
 32 33  1  0  0  0  0
 32 54  1  0  0  0  0
 33 34  1  0  0  0  0
 34 55  1  0  0  0  0
 34 56  1  0  0  0  0
 34 57  1  0  0  0  0
M  END
>  <Line_Number>
145


> <IC50>
34190

$$$$
