CHEMBL4129880
 OpenBabel09302502333D

 57 60  0  0  0  0  0  0  0  0999 V2000
   -2.7998   -0.0153   -3.4220 C   0  0  0  0  0  0  0  0  0  0  0  0
   -1.4315   -0.6241   -3.3004 C   0  0  0  0  0  0  0  0  0  0  0  0
   -0.3213    0.0505   -3.8213 C   0  0  0  0  0  0  0  0  0  0  0  0
    0.9529   -0.5053   -3.7159 C   0  0  0  0  0  0  0  0  0  0  0  0
    2.1629    0.1932   -4.2604 C   0  0  0  0  0  0  0  0  0  0  0  0
    1.1088   -1.7456   -3.0833 C   0  0  0  0  0  0  0  0  0  0  0  0
    0.0211   -2.4463   -2.5513 C   0  0  0  0  0  0  0  0  0  0  0  0
    0.1520   -3.7047   -1.8999 N   0  0  0  0  0  0  0  0  0  0  0  0
    1.3401   -4.3977   -1.7158 C   0  0  0  0  0  0  0  0  0  0  0  0
    2.4463   -4.0284   -2.0980 O   0  0  0  0  0  0  0  0  0  0  0  0
    1.1864   -5.7190   -0.9746 C   0  0  0  0  0  0  0  0  0  0  0  0
    2.5714   -6.3697   -0.8214 C   0  0  0  0  0  0  0  0  0  0  0  0
    2.4867   -7.9790    0.0185 S   0  0  0  0  0  0  0  0  0  0  0  0
    4.1736   -8.4387    0.0094 C   0  0  0  0  0  0  0  0  0  0  0  0
    5.1916   -7.6014    0.0120 N   0  0  0  0  0  0  0  0  0  0  0  0
    6.3411   -8.3719    0.0090 N   0  0  0  0  0  0  0  0  0  0  0  0
    5.9437   -9.6295    0.0082 C   0  0  0  0  0  0  0  0  0  0  0  0
    6.7541  -10.8715   -0.0556 C   0  0  0  0  0  0  0  0  0  0  0  0
    7.0638  -11.4466    1.2930 C   0  0  0  0  0  0  0  0  0  0  0  0
    7.7951  -10.8726    2.3201 C   0  0  0  0  0  0  0  0  0  0  0  0
    7.8255  -11.9265    3.6818 S   0  0  0  0  0  0  0  0  0  0  0  0
    6.9692  -13.0904    2.7745 C   0  0  0  0  0  0  0  0  0  0  0  0
    6.7300  -14.2770    3.4147 N   0  0  0  0  0  0  0  0  0  0  0  0
    6.2986  -15.3785    2.7026 C   0  0  0  0  0  0  0  0  0  0  0  0
    6.2003  -15.4600    1.4836 O   0  0  0  0  0  0  0  0  0  0  0  0
    5.9860  -16.5996    3.4988 C   0  0  0  0  0  0  0  0  0  0  0  0
    5.4788  -16.5474    4.8029 C   0  0  0  0  0  0  0  0  0  0  0  0
    5.1205  -17.7321    5.4562 C   0  0  0  0  0  0  0  0  0  0  0  0
    5.2660  -18.9637    4.8147 C   0  0  0  0  0  0  0  0  0  0  0  0
    5.7769  -19.0202    3.5204 C   0  0  0  0  0  0  0  0  0  0  0  0
    6.1341  -17.8425    2.8649 C   0  0  0  0  0  0  0  0  0  0  0  0
    6.6183  -12.7289    1.5679 N   0  0  0  0  0  0  0  0  0  0  0  0
    4.5773   -9.7496    0.0131 O   0  0  0  0  0  0  0  0  0  0  0  0
   -1.2527   -1.8712   -2.6685 C   0  0  0  0  0  0  0  0  0  0  0  0
   -2.7615    0.9603   -3.9207 H   0  0  0  0  0  0  0  0  0  0  0  0
   -3.2374    0.1379   -2.4308 H   0  0  0  0  0  0  0  0  0  0  0  0
   -3.4527   -0.6640   -4.0138 H   0  0  0  0  0  0  0  0  0  0  0  0
   -0.4483    1.0142   -4.3107 H   0  0  0  0  0  0  0  0  0  0  0  0
    1.9018    1.1417   -4.7406 H   0  0  0  0  0  0  0  0  0  0  0  0
    2.6573   -0.4374   -5.0064 H   0  0  0  0  0  0  0  0  0  0  0  0
    2.8681    0.4082   -3.4499 H   0  0  0  0  0  0  0  0  0  0  0  0
    2.1196   -2.1321   -3.0237 H   0  0  0  0  0  0  0  0  0  0  0  0
   -0.7012   -4.1220   -1.5465 H   0  0  0  0  0  0  0  0  0  0  0  0
    0.5150   -6.3654   -1.5512 H   0  0  0  0  0  0  0  0  0  0  0  0
    0.7402   -5.5226    0.0069 H   0  0  0  0  0  0  0  0  0  0  0  0
    3.2304   -5.7043   -0.2518 H   0  0  0  0  0  0  0  0  0  0  0  0
    3.0211   -6.5214   -1.8090 H   0  0  0  0  0  0  0  0  0  0  0  0
    7.6939  -10.6731   -0.5850 H   0  0  0  0  0  0  0  0  0  0  0  0
    6.2163  -11.6181   -0.6541 H   0  0  0  0  0  0  0  0  0  0  0  0
    8.2799   -9.9062    2.3460 H   0  0  0  0  0  0  0  0  0  0  0  0
    6.9944  -14.3423    4.3843 H   0  0  0  0  0  0  0  0  0  0  0  0
    5.3090  -15.6016    5.3086 H   0  0  0  0  0  0  0  0  0  0  0  0
    4.7036  -17.6971    6.4602 H   0  0  0  0  0  0  0  0  0  0  0  0
    4.9666  -19.8804    5.3175 H   0  0  0  0  0  0  0  0  0  0  0  0
    5.8813  -19.9754    3.0117 H   0  0  0  0  0  0  0  0  0  0  0  0
    6.5133  -17.8925    1.8453 H   0  0  0  0  0  0  0  0  0  0  0  0
   -2.1256   -2.3821   -2.2698 H   0  0  0  0  0  0  0  0  0  0  0  0
  1  2  1  0  0  0  0
  1 35  1  0  0  0  0
  1 36  1  0  0  0  0
  1 37  1  0  0  0  0
  2  3  1  0  0  0  0
  2 34  2  0  0  0  0
  3  4  2  0  0  0  0
  3 38  1  0  0  0  0
  4  5  1  0  0  0  0
  4  6  1  0  0  0  0
  5 39  1  0  0  0  0
  5 40  1  0  0  0  0
  5 41  1  0  0  0  0
  6  7  2  0  0  0  0
  6 42  1  0  0  0  0
  7  8  1  0  0  0  0
  7 34  1  0  0  0  0
  8  9  1  0  0  0  0
  8 43  1  0  0  0  0
  9 10  2  0  0  0  0
  9 11  1  0  0  0  0
 11 12  1  0  0  0  0
 11 44  1  0  0  0  0
 11 45  1  0  0  0  0
 12 13  1  0  0  0  0
 12 46  1  0  0  0  0
 12 47  1  0  0  0  0
 13 14  1  0  0  0  0
 14 15  2  0  0  0  0
 14 33  1  0  0  0  0
 15 16  1  0  0  0  0
 16 17  2  0  0  0  0
 17 18  1  0  0  0  0
 17 33  1  0  0  0  0
 18 19  1  0  0  0  0
 18 48  1  0  0  0  0
 18 49  1  0  0  0  0
 19 20  2  0  0  0  0
 19 32  1  0  0  0  0
 20 21  1  0  0  0  0
 20 50  1  0  0  0  0
 21 22  1  0  0  0  0
 22 23  1  0  0  0  0
 22 32  2  0  0  0  0
 23 24  1  0  0  0  0
 23 51  1  0  0  0  0
 24 25  2  0  0  0  0
 24 26  1  0  0  0  0
 26 27  1  0  0  0  0
 26 31  2  0  0  0  0
 27 28  2  0  0  0  0
 27 52  1  0  0  0  0
 28 29  1  0  0  0  0
 28 53  1  0  0  0  0
 29 30  2  0  0  0  0
 29 54  1  0  0  0  0
 30 31  1  0  0  0  0
 30 55  1  0  0  0  0
 31 56  1  0  0  0  0
 34 57  1  0  0  0  0
M  END
>  <Line_Number>
146


> <IC50>
52120

$$$$
