CHEMBL4286810
 OpenBabel09302502333D

 44 46  0  0  0  0  0  0  0  0999 V2000
    1.0360   -0.0164    0.9866 C   0  0  0  0  0  0  0  0  0  0  0  0
    2.2915    0.4332    0.2901 C   0  0  0  0  0  0  0  0  0  0  0  0
    2.2084    0.6336   -1.1987 C   0  0  0  0  0  0  0  0  0  0  0  0
    3.4211    0.6525    0.9952 C   0  0  0  0  0  0  0  0  0  0  0  0
    4.7382    1.1153    0.4373 C   0  0  0  0  0  0  0  0  0  0  0  0
    5.1317    2.3396    1.0894 N   0  0  0  0  0  0  0  0  0  0  0  0
    4.7324    3.5921    0.6532 C   0  0  0  0  0  0  0  0  0  0  0  0
    4.0178    3.8866   -0.2802 O   0  0  0  0  0  0  0  0  0  0  0  0
    5.4179    4.5930    1.6041 C   0  0  0  0  0  0  0  0  0  0  0  0
    5.1356    5.8586    1.5534 N   0  0  0  0  0  0  0  0  0  0  0  0
    5.6465    6.7036    2.4879 N   0  0  0  0  0  0  0  0  0  0  0  0
    5.3886    8.0659    2.4194 C   0  0  0  0  0  0  0  0  0  0  0  0
    4.7077    8.6349    1.5759 O   0  0  0  0  0  0  0  0  0  0  0  0
    6.0024    8.8643    3.5207 C   0  0  0  0  0  0  0  0  0  0  0  0
    7.2381    8.5045    4.0813 C   0  0  0  0  0  0  0  0  0  0  0  0
    7.7899    9.2726    5.1084 C   0  0  0  0  0  0  0  0  0  0  0  0
    7.1149   10.4018    5.5593 C   0  0  0  0  0  0  0  0  0  0  0  0
    7.6505   11.1374    6.5419 F   0  0  0  0  0  0  0  0  0  0  0  0
    5.9007   10.7835    4.9986 C   0  0  0  0  0  0  0  0  0  0  0  0
    5.3429   10.0162    3.9727 C   0  0  0  0  0  0  0  0  0  0  0  0
    6.3028    3.7872    2.4605 C   0  0  0  0  0  0  0  0  0  0  0  0
    7.2717    4.1346    3.3889 C   0  0  0  0  0  0  0  0  0  0  0  0
    7.9506    3.1087    4.0514 C   0  0  0  0  0  0  0  0  0  0  0  0
    7.6702    1.7649    3.7645 C   0  0  0  0  0  0  0  0  0  0  0  0
    6.7242    1.4244    2.7950 C   0  0  0  0  0  0  0  0  0  0  0  0
    6.0564    2.4482    2.1398 C   0  0  0  0  0  0  0  0  0  0  0  0
    0.2080   -0.1609    0.2849 H   0  0  0  0  0  0  0  0  0  0  0  0
    0.7148    0.7310    1.7195 H   0  0  0  0  0  0  0  0  0  0  0  0
    1.1988   -0.9707    1.4980 H   0  0  0  0  0  0  0  0  0  0  0  0
    1.2114    0.4062   -1.5885 H   0  0  0  0  0  0  0  0  0  0  0  0
    2.9137   -0.0269   -1.7141 H   0  0  0  0  0  0  0  0  0  0  0  0
    2.4294    1.6727   -1.4628 H   0  0  0  0  0  0  0  0  0  0  0  0
    3.4020    0.4834    2.0707 H   0  0  0  0  0  0  0  0  0  0  0  0
    4.6825    1.3073   -0.6387 H   0  0  0  0  0  0  0  0  0  0  0  0
    5.4957    0.3395    0.5825 H   0  0  0  0  0  0  0  0  0  0  0  0
    5.9445    6.3191    3.3713 H   0  0  0  0  0  0  0  0  0  0  0  0
    7.7996    7.6548    3.7048 H   0  0  0  0  0  0  0  0  0  0  0  0
    8.7466    9.0093    5.5487 H   0  0  0  0  0  0  0  0  0  0  0  0
    5.3998   11.6773    5.3576 H   0  0  0  0  0  0  0  0  0  0  0  0
    4.3972   10.3165    3.5243 H   0  0  0  0  0  0  0  0  0  0  0  0
    7.5497    5.1588    3.5946 H   0  0  0  0  0  0  0  0  0  0  0  0
    8.7132    3.3514    4.7898 H   0  0  0  0  0  0  0  0  0  0  0  0
    8.2130    0.9800    4.2892 H   0  0  0  0  0  0  0  0  0  0  0  0
    6.5417    0.3793    2.5698 H   0  0  0  0  0  0  0  0  0  0  0  0
  1  2  1  0  0  0  0
  1 27  1  0  0  0  0
  1 28  1  0  0  0  0
  1 29  1  0  0  0  0
  2  3  1  0  0  0  0
  2  4  2  0  0  0  0
  3 30  1  0  0  0  0
  3 31  1  0  0  0  0
  3 32  1  0  0  0  0
  4  5  1  0  0  0  0
  4 33  1  0  0  0  0
  5  6  1  0  0  0  0
  5 34  1  0  0  0  0
  5 35  1  0  0  0  0
  6  7  1  0  0  0  0
  6 26  1  0  0  0  0
  7  8  2  0  0  0  0
  7  9  1  0  0  0  0
  9 10  2  0  0  0  0
  9 21  1  0  0  0  0
 10 11  1  0  0  0  0
 11 12  1  0  0  0  0
 11 36  1  0  0  0  0
 12 13  2  0  0  0  0
 12 14  1  0  0  0  0
 14 15  1  0  0  0  0
 14 20  2  0  0  0  0
 15 16  2  0  0  0  0
 15 37  1  0  0  0  0
 16 17  1  0  0  0  0
 16 38  1  0  0  0  0
 17 18  1  0  0  0  0
 17 19  2  0  0  0  0
 19 20  1  0  0  0  0
 19 39  1  0  0  0  0
 20 40  1  0  0  0  0
 21 22  1  0  0  0  0
 21 26  2  0  0  0  0
 22 23  2  0  0  0  0
 22 41  1  0  0  0  0
 23 24  1  0  0  0  0
 23 42  1  0  0  0  0
 24 25  2  0  0  0  0
 24 43  1  0  0  0  0
 25 26  1  0  0  0  0
 25 44  1  0  0  0  0
M  END
>  <Line_Number>
147


> <IC50>
154000

$$$$
