
 OpenBabel09302502332D

 27 29  0  0  0  0  0  0  0  0999 V2000
    2.5981   -0.5000    0.0000 C   0  0  0  0  0  0  0  0  0  0  0  0
    1.7321   -0.0000    0.0000 O   0  0  0  0  0  0  0  0  0  0  0  0
    0.8660   -0.5000    0.0000 C   0  0  0  0  0  0  0  0  0  0  0  0
    0.8660   -1.5000    0.0000 C   0  0  0  0  0  0  0  0  0  0  0  0
   -0.0000   -2.0000    0.0000 C   0  0  0  0  0  0  0  0  0  0  0  0
   -0.8660   -1.5000    0.0000 C   0  0  0  0  0  0  0  0  0  0  0  0
   -0.8660   -0.5000    0.0000 C   0  0  0  0  0  0  0  0  0  0  0  0
   -1.7321    0.0000    0.0000 C   0  0  0  0  0  0  0  0  0  0  0  0
   -1.7321    1.0000    0.0000 O   0  0  0  0  0  0  0  0  0  0  0  0
   -2.5981   -0.5000    0.0000 N   0  0  0  0  0  0  0  0  0  0  0  0
   -2.5981   -1.5000    0.0000 N   0  0  0  0  0  0  0  0  0  0  0  0
   -3.4641   -2.0000    0.0000 C   0  0  0  0  0  0  0  0  0  0  0  0
   -3.5686   -2.9945    0.0000 C   0  0  0  0  0  0  0  0  0  0  0  0
   -2.8255   -3.6637    0.0000 O   0  0  0  0  0  0  0  0  0  0  0  0
   -4.5468   -3.2024    0.0000 N   0  0  0  0  0  0  0  0  0  0  0  0
   -4.9535   -4.1160    0.0000 C   0  0  0  0  0  0  0  0  0  0  0  0
   -5.9480   -4.2205    0.0000 C   0  0  0  0  0  0  0  0  0  0  0  0
   -6.3548   -5.1341    0.0000 C   0  0  0  0  0  0  0  0  0  0  0  0
   -5.7670   -5.9431    0.0000 C   0  0  0  0  0  0  0  0  0  0  0  0
   -7.3493   -5.2386    0.0000 C   0  0  0  0  0  0  0  0  0  0  0  0
   -5.0468   -2.3364    0.0000 C   0  0  0  0  0  0  0  0  0  0  0  0
   -6.0249   -2.1285    0.0000 C   0  0  0  0  0  0  0  0  0  0  0  0
   -6.3339   -1.1774    0.0000 C   0  0  0  0  0  0  0  0  0  0  0  0
   -5.6648   -0.4343    0.0000 C   0  0  0  0  0  0  0  0  0  0  0  0
   -4.6867   -0.6422    0.0000 C   0  0  0  0  0  0  0  0  0  0  0  0
   -4.3776   -1.5933    0.0000 C   0  0  0  0  0  0  0  0  0  0  0  0
    0.0000   -0.0000    0.0000 C   0  0  0  0  0  0  0  0  0  0  0  0
  1  2  1  0  0  0  0
  2  3  1  0  0  0  0
  3 27  2  0  0  0  0
  3  4  1  0  0  0  0
  4  5  2  0  0  0  0
  5  6  1  0  0  0  0
  6  7  2  0  0  0  0
  7  8  1  0  0  0  0
  7 27  1  0  0  0  0
  8  9  2  0  0  0  0
  8 10  1  0  0  0  0
 10 11  1  0  0  0  0
 11 12  2  0  0  0  0
 12 26  1  0  0  0  0
 12 13  1  0  0  0  0
 13 14  2  0  0  0  0
 13 15  1  0  0  0  0
 15 16  1  0  0  0  0
 15 21  1  0  0  0  0
 16 17  1  0  0  0  0
 17 18  2  0  0  0  0
 18 19  1  0  0  0  0
 18 20  1  0  0  0  0
 21 26  2  0  0  0  0
 21 22  1  0  0  0  0
 22 23  2  0  0  0  0
 23 24  1  0  0  0  0
 24 25  2  0  0  0  0
 25 26  1  0  0  0  0
M  END

> <IC50>
8210

$$$$
