49844402.0
 OpenBabel09302502333D

 31 32  0  0  0  0  0  0  0  0999 V2000
    2.1019    1.3393    0.3863 O   0  0  0  0  0  0  0  0  0  0  0  0
    1.0194    0.5148    0.2782 C   0  0  0  0  0  0  0  0  0  0  0  0
    0.0348    0.5048    1.2558 C   0  0  0  0  0  0  0  0  0  0  0  0
   -1.0610   -0.3577    1.1301 C   0  0  0  0  0  0  0  0  0  0  0  0
   -1.2148   -1.2180    0.0213 C   0  0  0  0  0  0  0  0  0  0  0  0
   -2.4332   -2.1253    0.0090 C   0  0  0  0  0  0  0  0  0  0  0  0
   -3.7720   -1.3578    0.0319 C   0  0  0  0  0  0  0  0  0  0  0  0
   -5.0558   -2.1633    0.0636 C   0  0  0  0  0  0  0  0  0  0  0  0
   -5.1080   -3.5626    0.0851 C   0  0  0  0  0  0  0  0  0  0  0  0
   -6.3385   -4.2300    0.0913 C   0  0  0  0  0  0  0  0  0  0  0  0
   -7.5329   -3.5097    0.0832 C   0  0  0  0  0  0  0  0  0  0  0  0
   -7.4933   -2.1206    0.0755 C   0  0  0  0  0  0  0  0  0  0  0  0
   -9.1043   -1.1304    0.0646 Br  0  0  0  0  0  0  0  0  0  0  0  0
   -6.2698   -1.4499    0.0682 C   0  0  0  0  0  0  0  0  0  0  0  0
   -0.2029   -1.1904   -0.9530 C   0  0  0  0  0  0  0  0  0  0  0  0
   -0.1716   -1.9574   -2.0878 O   0  0  0  0  0  0  0  0  0  0  0  0
    0.9006   -0.3309   -0.8156 C   0  0  0  0  0  0  0  0  0  0  0  0
    1.8668   -0.3418   -1.7889 O   0  0  0  0  0  0  0  0  0  0  0  0
    2.0242    1.8629    1.1978 H   0  0  0  0  0  0  0  0  0  0  0  0
    0.1014    1.1479    2.1275 H   0  0  0  0  0  0  0  0  0  0  0  0
   -1.8019   -0.3578    1.9280 H   0  0  0  0  0  0  0  0  0  0  0  0
   -2.3701   -2.7714    0.8960 H   0  0  0  0  0  0  0  0  0  0  0  0
   -2.4157   -2.7935   -0.8567 H   0  0  0  0  0  0  0  0  0  0  0  0
   -3.8130   -0.7127   -0.8551 H   0  0  0  0  0  0  0  0  0  0  0  0
   -3.8027   -0.6985    0.9093 H   0  0  0  0  0  0  0  0  0  0  0  0
   -4.2018   -4.1621    0.0949 H   0  0  0  0  0  0  0  0  0  0  0  0
   -6.3654   -5.3172    0.1008 H   0  0  0  0  0  0  0  0  0  0  0  0
   -8.4823   -4.0386    0.0834 H   0  0  0  0  0  0  0  0  0  0  0  0
   -6.2542   -0.3613    0.0615 H   0  0  0  0  0  0  0  0  0  0  0  0
   -0.8576   -2.6432   -2.0405 H   0  0  0  0  0  0  0  0  0  0  0  0
    1.5489   -0.9999   -2.4360 H   0  0  0  0  0  0  0  0  0  0  0  0
  1  2  1  0  0  0  0
  1 19  1  0  0  0  0
  2  3  1  0  0  0  0
  2 17  2  0  0  0  0
  3  4  2  0  0  0  0
  3 20  1  0  0  0  0
  4  5  1  0  0  0  0
  4 21  1  0  0  0  0
  5  6  1  0  0  0  0
  5 15  2  0  0  0  0
  6  7  1  0  0  0  0
  6 22  1  0  0  0  0
  6 23  1  0  0  0  0
  7  8  1  0  0  0  0
  7 24  1  0  0  0  0
  7 25  1  0  0  0  0
  8  9  1  0  0  0  0
  8 14  2  0  0  0  0
  9 10  2  0  0  0  0
  9 26  1  0  0  0  0
 10 11  1  0  0  0  0
 10 27  1  0  0  0  0
 11 12  2  0  0  0  0
 11 28  1  0  0  0  0
 12 13  1  0  0  0  0
 12 14  1  0  0  0  0
 14 29  1  0  0  0  0
 15 16  1  0  0  0  0
 15 17  1  0  0  0  0
 16 30  1  0  0  0  0
 17 18  1  0  0  0  0
 18 31  1  0  0  0  0
M  END
>  <Line_Number>
14


> <IC50>
52000

$$$$
