CHEMBL4294712
 OpenBabel09302502333D

 44 46  0  0  0  0  0  0  0  0999 V2000
    1.8373    1.2982    2.1822 C   0  0  0  0  0  0  0  0  0  0  0  0
    3.2189    0.8260    1.8287 C   0  0  0  0  0  0  0  0  0  0  0  0
    4.3440    1.8139    2.0010 C   0  0  0  0  0  0  0  0  0  0  0  0
    3.4219   -0.4293    1.3807 C   0  0  0  0  0  0  0  0  0  0  0  0
    4.7394   -1.0054    0.9328 C   0  0  0  0  0  0  0  0  0  0  0  0
    5.0834   -2.1377    1.7560 N   0  0  0  0  0  0  0  0  0  0  0  0
    5.8447   -2.0512    2.9086 C   0  0  0  0  0  0  0  0  0  0  0  0
    6.3529   -1.0782    3.4227 O   0  0  0  0  0  0  0  0  0  0  0  0
    5.9254   -3.4921    3.4534 C   0  0  0  0  0  0  0  0  0  0  0  0
    6.5392   -3.7631    4.5640 N   0  0  0  0  0  0  0  0  0  0  0  0
    6.4523   -5.0259    5.0662 N   0  0  0  0  0  0  0  0  0  0  0  0
    7.4257   -5.5086    5.9310 C   0  0  0  0  0  0  0  0  0  0  0  0
    8.4536   -4.9225    6.2622 O   0  0  0  0  0  0  0  0  0  0  0  0
    7.1636   -6.8770    6.4689 C   0  0  0  0  0  0  0  0  0  0  0  0
    6.4242   -7.8225    5.7409 C   0  0  0  0  0  0  0  0  0  0  0  0
    6.1876   -9.0950    6.2657 C   0  0  0  0  0  0  0  0  0  0  0  0
    6.7011   -9.4318    7.5145 C   0  0  0  0  0  0  0  0  0  0  0  0
    6.3988  -10.9963    8.1607 Cl  0  0  0  0  0  0  0  0  0  0  0  0
    7.4615   -8.5121    8.2365 C   0  0  0  0  0  0  0  0  0  0  0  0
    7.6995   -7.2377    7.7105 C   0  0  0  0  0  0  0  0  0  0  0  0
    5.2143   -4.3291    2.4725 C   0  0  0  0  0  0  0  0  0  0  0  0
    5.0211   -5.6964    2.3792 C   0  0  0  0  0  0  0  0  0  0  0  0
    4.2551   -6.1885    1.3179 C   0  0  0  0  0  0  0  0  0  0  0  0
    3.7400   -5.3195    0.3460 C   0  0  0  0  0  0  0  0  0  0  0  0
    3.9901   -3.9479    0.4155 C   0  0  0  0  0  0  0  0  0  0  0  0
    4.7212   -3.4663    1.4912 C   0  0  0  0  0  0  0  0  0  0  0  0
    1.8429    2.3108    2.5981 H   0  0  0  0  0  0  0  0  0  0  0  0
    1.3800    0.6418    2.9326 H   0  0  0  0  0  0  0  0  0  0  0  0
    1.2000    1.3159    1.2917 H   0  0  0  0  0  0  0  0  0  0  0  0
    3.9975    2.7576    2.4312 H   0  0  0  0  0  0  0  0  0  0  0  0
    4.8046    2.0421    1.0353 H   0  0  0  0  0  0  0  0  0  0  0  0
    5.1040    1.4126    2.6771 H   0  0  0  0  0  0  0  0  0  0  0  0
    2.5640   -1.0930    1.2944 H   0  0  0  0  0  0  0  0  0  0  0  0
    5.5497   -0.2751    0.9902 H   0  0  0  0  0  0  0  0  0  0  0  0
    4.6654   -1.3112   -0.1172 H   0  0  0  0  0  0  0  0  0  0  0  0
    5.5242   -5.4366    5.0970 H   0  0  0  0  0  0  0  0  0  0  0  0
    6.0485   -7.6032    4.7502 H   0  0  0  0  0  0  0  0  0  0  0  0
    5.6123   -9.8167    5.6913 H   0  0  0  0  0  0  0  0  0  0  0  0
    7.8729   -8.7799    9.2060 H   0  0  0  0  0  0  0  0  0  0  0  0
    8.3022   -6.5252    8.2724 H   0  0  0  0  0  0  0  0  0  0  0  0
    5.4531   -6.3896    3.0824 H   0  0  0  0  0  0  0  0  0  0  0  0
    4.0595   -7.2564    1.2376 H   0  0  0  0  0  0  0  0  0  0  0  0
    3.1473   -5.7184   -0.4750 H   0  0  0  0  0  0  0  0  0  0  0  0
    3.6106   -3.2942   -0.3612 H   0  0  0  0  0  0  0  0  0  0  0  0
  1  2  1  0  0  0  0
  1 27  1  0  0  0  0
  1 28  1  0  0  0  0
  1 29  1  0  0  0  0
  2  3  1  0  0  0  0
  2  4  2  0  0  0  0
  3 30  1  0  0  0  0
  3 31  1  0  0  0  0
  3 32  1  0  0  0  0
  4  5  1  0  0  0  0
  4 33  1  0  0  0  0
  5  6  1  0  0  0  0
  5 34  1  0  0  0  0
  5 35  1  0  0  0  0
  6  7  1  0  0  0  0
  6 26  1  0  0  0  0
  7  8  2  0  0  0  0
  7  9  1  0  0  0  0
  9 10  2  0  0  0  0
  9 21  1  0  0  0  0
 10 11  1  0  0  0  0
 11 12  1  0  0  0  0
 11 36  1  0  0  0  0
 12 13  2  0  0  0  0
 12 14  1  0  0  0  0
 14 15  1  0  0  0  0
 14 20  2  0  0  0  0
 15 16  2  0  0  0  0
 15 37  1  0  0  0  0
 16 17  1  0  0  0  0
 16 38  1  0  0  0  0
 17 18  1  0  0  0  0
 17 19  2  0  0  0  0
 19 20  1  0  0  0  0
 19 39  1  0  0  0  0
 20 40  1  0  0  0  0
 21 22  1  0  0  0  0
 21 26  2  0  0  0  0
 22 23  2  0  0  0  0
 22 41  1  0  0  0  0
 23 24  1  0  0  0  0
 23 42  1  0  0  0  0
 24 25  2  0  0  0  0
 24 43  1  0  0  0  0
 25 26  1  0  0  0  0
 25 44  1  0  0  0  0
M  END
>  <Line_Number>
150


> <IC50>
143000

$$$$
