CHEMBL4289842
 OpenBabel09302502333D

 44 46  0  0  0  0  0  0  0  0999 V2000
    7.7111    1.0176    1.0500 C   0  0  0  0  0  0  0  0  0  0  0  0
    6.5526    0.7601    0.1265 C   0  0  0  0  0  0  0  0  0  0  0  0
    6.0756    1.9137   -0.7130 C   0  0  0  0  0  0  0  0  0  0  0  0
    5.9869   -0.4622    0.0652 C   0  0  0  0  0  0  0  0  0  0  0  0
    4.8489   -0.8567   -0.8319 C   0  0  0  0  0  0  0  0  0  0  0  0
    5.2559   -1.9539   -1.6754 N   0  0  0  0  0  0  0  0  0  0  0  0
    5.8104   -1.7954   -2.9365 C   0  0  0  0  0  0  0  0  0  0  0  0
    6.1206   -0.7767   -3.5150 O   0  0  0  0  0  0  0  0  0  0  0  0
    5.9475   -3.2245   -3.5052 C   0  0  0  0  0  0  0  0  0  0  0  0
    6.4685   -3.4413   -4.6748 N   0  0  0  0  0  0  0  0  0  0  0  0
    6.6800   -4.7273   -5.0612 N   0  0  0  0  0  0  0  0  0  0  0  0
    6.7659   -5.0663   -6.4068 C   0  0  0  0  0  0  0  0  0  0  0  0
    6.6477   -4.3071   -7.3564 O   0  0  0  0  0  0  0  0  0  0  0  0
    7.0209   -6.5173   -6.6513 C   0  0  0  0  0  0  0  0  0  0  0  0
    6.5832   -7.4931   -5.7420 C   0  0  0  0  0  0  0  0  0  0  0  0
    6.8541   -8.8416   -5.9533 C   0  0  0  0  0  0  0  0  0  0  0  0
    7.5503   -9.2291   -7.0928 C   0  0  0  0  0  0  0  0  0  0  0  0
    7.9565   -8.2669   -8.0206 C   0  0  0  0  0  0  0  0  0  0  0  0
    8.8934   -8.8152   -9.5683 Br  0  0  0  0  0  0  0  0  0  0  0  0
    7.6900   -6.9128   -7.8133 C   0  0  0  0  0  0  0  0  0  0  0  0
    5.3663   -4.1144   -2.4830 C   0  0  0  0  0  0  0  0  0  0  0  0
    5.0865   -5.4708   -2.4695 C   0  0  0  0  0  0  0  0  0  0  0  0
    4.5292   -6.0291   -1.3151 C   0  0  0  0  0  0  0  0  0  0  0  0
    4.2328   -5.2255   -0.2069 C   0  0  0  0  0  0  0  0  0  0  0  0
    4.4560   -3.8483   -0.2517 C   0  0  0  0  0  0  0  0  0  0  0  0
    5.0103   -3.3066   -1.4018 C   0  0  0  0  0  0  0  0  0  0  0  0
    8.0327    2.0633    1.0196 H   0  0  0  0  0  0  0  0  0  0  0  0
    8.5713    0.4028    0.7648 H   0  0  0  0  0  0  0  0  0  0  0  0
    7.4392    0.7904    2.0861 H   0  0  0  0  0  0  0  0  0  0  0  0
    6.6316    2.8318   -0.5025 H   0  0  0  0  0  0  0  0  0  0  0  0
    5.0204    2.1233   -0.5072 H   0  0  0  0  0  0  0  0  0  0  0  0
    6.1974    1.6930   -1.7779 H   0  0  0  0  0  0  0  0  0  0  0  0
    6.3709   -1.2480    0.7145 H   0  0  0  0  0  0  0  0  0  0  0  0
    4.5241   -0.0342   -1.4753 H   0  0  0  0  0  0  0  0  0  0  0  0
    3.9804   -1.1426   -0.2290 H   0  0  0  0  0  0  0  0  0  0  0  0
    7.0497   -5.3636   -4.3658 H   0  0  0  0  0  0  0  0  0  0  0  0
    6.0019   -7.2282   -4.8697 H   0  0  0  0  0  0  0  0  0  0  0  0
    6.5170   -9.5848   -5.2343 H   0  0  0  0  0  0  0  0  0  0  0  0
    7.7638  -10.2823   -7.2550 H   0  0  0  0  0  0  0  0  0  0  0  0
    8.0036   -6.1668   -8.5403 H   0  0  0  0  0  0  0  0  0  0  0  0
    5.2482   -6.1002   -3.3276 H   0  0  0  0  0  0  0  0  0  0  0  0
    4.3134   -7.0955   -1.2760 H   0  0  0  0  0  0  0  0  0  0  0  0
    3.8085   -5.6756    0.6886 H   0  0  0  0  0  0  0  0  0  0  0  0
    4.1967   -3.2363    0.6052 H   0  0  0  0  0  0  0  0  0  0  0  0
  1  2  1  0  0  0  0
  1 27  1  0  0  0  0
  1 28  1  0  0  0  0
  1 29  1  0  0  0  0
  2  3  1  0  0  0  0
  2  4  2  0  0  0  0
  3 30  1  0  0  0  0
  3 31  1  0  0  0  0
  3 32  1  0  0  0  0
  4  5  1  0  0  0  0
  4 33  1  0  0  0  0
  5  6  1  0  0  0  0
  5 34  1  0  0  0  0
  5 35  1  0  0  0  0
  6  7  1  0  0  0  0
  6 26  1  0  0  0  0
  7  8  2  0  0  0  0
  7  9  1  0  0  0  0
  9 10  2  0  0  0  0
  9 21  1  0  0  0  0
 10 11  1  0  0  0  0
 11 12  1  0  0  0  0
 11 36  1  0  0  0  0
 12 13  2  0  0  0  0
 12 14  1  0  0  0  0
 14 15  1  0  0  0  0
 14 20  2  0  0  0  0
 15 16  2  0  0  0  0
 15 37  1  0  0  0  0
 16 17  1  0  0  0  0
 16 38  1  0  0  0  0
 17 18  2  0  0  0  0
 17 39  1  0  0  0  0
 18 19  1  0  0  0  0
 18 20  1  0  0  0  0
 20 40  1  0  0  0  0
 21 22  1  0  0  0  0
 21 26  2  0  0  0  0
 22 23  2  0  0  0  0
 22 41  1  0  0  0  0
 23 24  1  0  0  0  0
 23 42  1  0  0  0  0
 24 25  2  0  0  0  0
 24 43  1  0  0  0  0
 25 26  1  0  0  0  0
 25 44  1  0  0  0  0
M  END
>  <Line_Number>
151


> <IC50>
27600

$$$$
