CHEMBL4278846
 OpenBabel09302502333D

 50 52  0  0  0  0  0  0  0  0999 V2000
    1.2443    0.2161    1.8183 C   0  0  0  0  0  0  0  0  0  0  0  0
    2.3717   -0.1952    0.9086 C   0  0  0  0  0  0  0  0  0  0  0  0
    2.1078   -0.1321   -0.5687 C   0  0  0  0  0  0  0  0  0  0  0  0
    3.5506   -0.5877    1.4341 C   0  0  0  0  0  0  0  0  0  0  0  0
    4.7694   -1.0599    0.6889 C   0  0  0  0  0  0  0  0  0  0  0  0
    5.1547   -2.3621    1.1802 N   0  0  0  0  0  0  0  0  0  0  0  0
    6.0288   -2.5503    2.2348 C   0  0  0  0  0  0  0  0  0  0  0  0
    6.6395   -1.7290    2.8826 O   0  0  0  0  0  0  0  0  0  0  0  0
    6.0656   -4.0701    2.4729 C   0  0  0  0  0  0  0  0  0  0  0  0
    6.7287   -4.5687    3.4711 N   0  0  0  0  0  0  0  0  0  0  0  0
    6.7344   -5.9131    3.6262 N   0  0  0  0  0  0  0  0  0  0  0  0
    6.9600   -6.5754    4.8181 C   0  0  0  0  0  0  0  0  0  0  0  0
    7.1551   -7.7929    4.7823 O   0  0  0  0  0  0  0  0  0  0  0  0
    6.9457   -5.8715    6.1353 C   0  0  0  0  0  0  0  0  0  0  0  0
    6.2839   -4.6577    6.3619 C   0  0  0  0  0  0  0  0  0  0  0  0
    6.3034   -4.0547    7.6280 C   0  0  0  0  0  0  0  0  0  0  0  0
    5.6194   -2.7387    7.8583 C   0  0  0  0  0  0  0  0  0  0  0  0
    6.9637   -4.6946    8.6838 C   0  0  0  0  0  0  0  0  0  0  0  0
    7.6020   -5.9237    8.4886 C   0  0  0  0  0  0  0  0  0  0  0  0
    8.2874   -6.6269    9.6221 C   0  0  0  0  0  0  0  0  0  0  0  0
    7.5901   -6.5022    7.2126 C   0  0  0  0  0  0  0  0  0  0  0  0
    5.1748   -4.6606    1.4642 C   0  0  0  0  0  0  0  0  0  0  0  0
    4.7884   -5.9683    1.2139 C   0  0  0  0  0  0  0  0  0  0  0  0
    3.8598   -6.1964    0.1950 C   0  0  0  0  0  0  0  0  0  0  0  0
    3.3279   -5.1280   -0.5410 C   0  0  0  0  0  0  0  0  0  0  0  0
    3.7202   -3.8137   -0.2750 C   0  0  0  0  0  0  0  0  0  0  0  0
    4.6430   -3.5927    0.7330 C   0  0  0  0  0  0  0  0  0  0  0  0
    0.3889    0.6072    1.2582 H   0  0  0  0  0  0  0  0  0  0  0  0
    1.5660    1.0027    2.5089 H   0  0  0  0  0  0  0  0  0  0  0  0
    0.8910   -0.6436    2.3974 H   0  0  0  0  0  0  0  0  0  0  0  0
    1.1263    0.2976   -0.7912 H   0  0  0  0  0  0  0  0  0  0  0  0
    2.1252   -1.1315   -1.0092 H   0  0  0  0  0  0  0  0  0  0  0  0
    2.8538    0.4944   -1.0685 H   0  0  0  0  0  0  0  0  0  0  0  0
    3.6662   -0.5620    2.5185 H   0  0  0  0  0  0  0  0  0  0  0  0
    5.5884   -0.3562    0.8771 H   0  0  0  0  0  0  0  0  0  0  0  0
    4.6227   -1.1072   -0.3938 H   0  0  0  0  0  0  0  0  0  0  0  0
    6.9077   -6.4844    2.8068 H   0  0  0  0  0  0  0  0  0  0  0  0
    5.7385   -4.1671    5.5630 H   0  0  0  0  0  0  0  0  0  0  0  0
    5.1621   -2.3560    6.9398 H   0  0  0  0  0  0  0  0  0  0  0  0
    6.3430   -1.9944    8.2059 H   0  0  0  0  0  0  0  0  0  0  0  0
    4.8281   -2.8504    8.6062 H   0  0  0  0  0  0  0  0  0  0  0  0
    6.9729   -4.2302    9.6689 H   0  0  0  0  0  0  0  0  0  0  0  0
    8.1905   -6.0669   10.5581 H   0  0  0  0  0  0  0  0  0  0  0  0
    9.3540   -6.7414    9.4061 H   0  0  0  0  0  0  0  0  0  0  0  0
    7.8410   -7.6149    9.7770 H   0  0  0  0  0  0  0  0  0  0  0  0
    8.0863   -7.4595    7.0514 H   0  0  0  0  0  0  0  0  0  0  0  0
    5.1557   -6.8120    1.7835 H   0  0  0  0  0  0  0  0  0  0  0  0
    3.5349   -7.2127   -0.0217 H   0  0  0  0  0  0  0  0  0  0  0  0
    2.5943   -5.3251   -1.3203 H   0  0  0  0  0  0  0  0  0  0  0  0
    3.2931   -3.0030   -0.8500 H   0  0  0  0  0  0  0  0  0  0  0  0
  1  2  1  0  0  0  0
  1 28  1  0  0  0  0
  1 29  1  0  0  0  0
  1 30  1  0  0  0  0
  2  3  1  0  0  0  0
  2  4  2  0  0  0  0
  3 31  1  0  0  0  0
  3 32  1  0  0  0  0
  3 33  1  0  0  0  0
  4  5  1  0  0  0  0
  4 34  1  0  0  0  0
  5  6  1  0  0  0  0
  5 35  1  0  0  0  0
  5 36  1  0  0  0  0
  6  7  1  0  0  0  0
  6 27  1  0  0  0  0
  7  8  2  0  0  0  0
  7  9  1  0  0  0  0
  9 10  2  0  0  0  0
  9 22  1  0  0  0  0
 10 11  1  0  0  0  0
 11 12  1  0  0  0  0
 11 37  1  0  0  0  0
 12 13  2  0  0  0  0
 12 14  1  0  0  0  0
 14 15  1  0  0  0  0
 14 21  2  0  0  0  0
 15 16  2  0  0  0  0
 15 38  1  0  0  0  0
 16 17  1  0  0  0  0
 16 18  1  0  0  0  0
 17 39  1  0  0  0  0
 17 40  1  0  0  0  0
 17 41  1  0  0  0  0
 18 19  2  0  0  0  0
 18 42  1  0  0  0  0
 19 20  1  0  0  0  0
 19 21  1  0  0  0  0
 20 43  1  0  0  0  0
 20 44  1  0  0  0  0
 20 45  1  0  0  0  0
 21 46  1  0  0  0  0
 22 23  1  0  0  0  0
 22 27  2  0  0  0  0
 23 24  2  0  0  0  0
 23 47  1  0  0  0  0
 24 25  1  0  0  0  0
 24 48  1  0  0  0  0
 25 26  2  0  0  0  0
 25 49  1  0  0  0  0
 26 27  1  0  0  0  0
 26 50  1  0  0  0  0
M  END
>  <Line_Number>
152


> <IC50>
4380

$$$$
