CHEMBL4291305
 OpenBabel09302502333D

 44 46  0  0  0  0  0  0  0  0999 V2000
    1.0498   -0.4988    0.1205 C   0  0  0  0  0  0  0  0  0  0  0  0
    2.5543   -0.4980    0.1458 C   0  0  0  0  0  0  0  0  0  0  0  0
    3.2569   -1.2921   -0.9194 C   0  0  0  0  0  0  0  0  0  0  0  0
    3.2168    0.2419    1.0589 C   0  0  0  0  0  0  0  0  0  0  0  0
    4.7093    0.3898    1.1560 C   0  0  0  0  0  0  0  0  0  0  0  0
    5.1060    0.5687    2.5327 N   0  0  0  0  0  0  0  0  0  0  0  0
    5.2493    1.8118    3.1221 C   0  0  0  0  0  0  0  0  0  0  0  0
    5.0410    2.9065    2.6487 O   0  0  0  0  0  0  0  0  0  0  0  0
    5.7512    1.5325    4.5524 C   0  0  0  0  0  0  0  0  0  0  0  0
    5.8655    2.4976    5.4119 N   0  0  0  0  0  0  0  0  0  0  0  0
    6.1929    2.2279    6.7034 N   0  0  0  0  0  0  0  0  0  0  0  0
    6.3339    3.2608    7.6198 C   0  0  0  0  0  0  0  0  0  0  0  0
    6.1636    4.4532    7.3910 O   0  0  0  0  0  0  0  0  0  0  0  0
    6.7121    2.8293    8.9979 C   0  0  0  0  0  0  0  0  0  0  0  0
    7.5000    1.6909    9.2257 C   0  0  0  0  0  0  0  0  0  0  0  0
    7.8794    1.3490   10.5260 C   0  0  0  0  0  0  0  0  0  0  0  0
    7.4839    2.1447   11.6006 C   0  0  0  0  0  0  0  0  0  0  0  0
    6.7043    3.2800   11.3803 C   0  0  0  0  0  0  0  0  0  0  0  0
    6.3202    3.6236   10.0823 C   0  0  0  0  0  0  0  0  0  0  0  0
    5.9725    0.0808    4.6218 C   0  0  0  0  0  0  0  0  0  0  0  0
    6.5347   -0.7344    5.5926 C   0  0  0  0  0  0  0  0  0  0  0  0
    6.5747   -2.1098    5.3551 C   0  0  0  0  0  0  0  0  0  0  0  0
    6.0799   -2.6464    4.1570 C   0  0  0  0  0  0  0  0  0  0  0  0
    5.5613   -1.8119    3.1633 C   0  0  0  0  0  0  0  0  0  0  0  0
    5.5237   -0.4482    3.4050 C   0  0  0  0  0  0  0  0  0  0  0  0
    0.6540   -1.1124   -0.6961 H   0  0  0  0  0  0  0  0  0  0  0  0
    0.6678    0.5177   -0.0239 H   0  0  0  0  0  0  0  0  0  0  0  0
    0.6475   -0.9005    1.0561 H   0  0  0  0  0  0  0  0  0  0  0  0
    2.5518   -1.7802   -1.5993 H   0  0  0  0  0  0  0  0  0  0  0  0
    3.8738   -2.0775   -0.4711 H   0  0  0  0  0  0  0  0  0  0  0  0
    3.8925   -0.6397   -1.5281 H   0  0  0  0  0  0  0  0  0  0  0  0
    2.6364    0.8323    1.7679 H   0  0  0  0  0  0  0  0  0  0  0  0
    5.0066    1.2815    0.5931 H   0  0  0  0  0  0  0  0  0  0  0  0
    5.2466   -0.4631    0.7294 H   0  0  0  0  0  0  0  0  0  0  0  0
    6.0590    1.2933    7.0556 H   0  0  0  0  0  0  0  0  0  0  0  0
    7.8672    1.0855    8.4032 H   0  0  0  0  0  0  0  0  0  0  0  0
    8.5038    0.4760   10.7008 H   0  0  0  0  0  0  0  0  0  0  0  0
    7.7977    1.8901   12.6103 H   0  0  0  0  0  0  0  0  0  0  0  0
    6.4073    3.9076   12.2170 H   0  0  0  0  0  0  0  0  0  0  0  0
    5.7251    4.5197    9.9150 H   0  0  0  0  0  0  0  0  0  0  0  0
    6.9737   -0.3521    6.5027 H   0  0  0  0  0  0  0  0  0  0  0  0
    6.9995   -2.7757    6.1056 H   0  0  0  0  0  0  0  0  0  0  0  0
    6.1168   -3.7213    3.9957 H   0  0  0  0  0  0  0  0  0  0  0  0
    5.1988   -2.2402    2.2323 H   0  0  0  0  0  0  0  0  0  0  0  0
  1  2  1  0  0  0  0
  1 26  1  0  0  0  0
  1 27  1  0  0  0  0
  1 28  1  0  0  0  0
  2  3  1  0  0  0  0
  2  4  2  0  0  0  0
  3 29  1  0  0  0  0
  3 30  1  0  0  0  0
  3 31  1  0  0  0  0
  4  5  1  0  0  0  0
  4 32  1  0  0  0  0
  5  6  1  0  0  0  0
  5 33  1  0  0  0  0
  5 34  1  0  0  0  0
  6  7  1  0  0  0  0
  6 25  1  0  0  0  0
  7  8  2  0  0  0  0
  7  9  1  0  0  0  0
  9 10  2  0  0  0  0
  9 20  1  0  0  0  0
 10 11  1  0  0  0  0
 11 12  1  0  0  0  0
 11 35  1  0  0  0  0
 12 13  2  0  0  0  0
 12 14  1  0  0  0  0
 14 15  1  0  0  0  0
 14 19  2  0  0  0  0
 15 16  2  0  0  0  0
 15 36  1  0  0  0  0
 16 17  1  0  0  0  0
 16 37  1  0  0  0  0
 17 18  2  0  0  0  0
 17 38  1  0  0  0  0
 18 19  1  0  0  0  0
 18 39  1  0  0  0  0
 19 40  1  0  0  0  0
 20 21  1  0  0  0  0
 20 25  2  0  0  0  0
 21 22  2  0  0  0  0
 21 41  1  0  0  0  0
 22 23  1  0  0  0  0
 22 42  1  0  0  0  0
 23 24  2  0  0  0  0
 23 43  1  0  0  0  0
 24 25  1  0  0  0  0
 24 44  1  0  0  0  0
M  END
>  <Line_Number>
153


> <IC50>
129000

$$$$
