CHEMBL4279579
 OpenBabel09302502333D

 53 55  0  0  0  0  0  0  0  0999 V2000
    7.5915    0.4735   -1.2133 C   0  0  0  0  0  0  0  0  0  0  0  0
    6.4478    0.5064   -0.2382 C   0  0  0  0  0  0  0  0  0  0  0  0
    6.0361    1.8504    0.2944 C   0  0  0  0  0  0  0  0  0  0  0  0
    5.8394   -0.6369    0.1414 C   0  0  0  0  0  0  0  0  0  0  0  0
    4.7064   -0.7409    1.1230 C   0  0  0  0  0  0  0  0  0  0  0  0
    5.0811   -1.6140    2.2060 N   0  0  0  0  0  0  0  0  0  0  0  0
    5.7060   -1.1799    3.3640 C   0  0  0  0  0  0  0  0  0  0  0  0
    6.0477   -0.0604    3.6768 O   0  0  0  0  0  0  0  0  0  0  0  0
    5.8391   -2.4367    4.2489 C   0  0  0  0  0  0  0  0  0  0  0  0
    6.3372   -2.3724    5.4441 N   0  0  0  0  0  0  0  0  0  0  0  0
    6.3016   -3.4815    6.2342 N   0  0  0  0  0  0  0  0  0  0  0  0
    7.1812   -3.6024    7.3050 C   0  0  0  0  0  0  0  0  0  0  0  0
    8.0339   -2.7805    7.6191 O   0  0  0  0  0  0  0  0  0  0  0  0
    7.0644   -4.8683    8.0917 C   0  0  0  0  0  0  0  0  0  0  0  0
    6.5590   -6.0533    7.5433 C   0  0  0  0  0  0  0  0  0  0  0  0
    6.5298   -7.2352    8.2937 C   0  0  0  0  0  0  0  0  0  0  0  0
    7.0172   -7.2586    9.6067 C   0  0  0  0  0  0  0  0  0  0  0  0
    7.0167   -8.5558   10.4002 C   0  0  0  0  0  0  0  0  0  0  0  0
    8.4369   -8.9725   10.7927 C   0  0  0  0  0  0  0  0  0  0  0  0
    6.1279   -8.4604   11.6429 C   0  0  0  0  0  0  0  0  0  0  0  0
    7.5270   -6.0698   10.1488 C   0  0  0  0  0  0  0  0  0  0  0  0
    7.5538   -4.8879    9.4026 C   0  0  0  0  0  0  0  0  0  0  0  0
    5.3032   -3.5470    3.4474 C   0  0  0  0  0  0  0  0  0  0  0  0
    5.2275   -4.9097    3.6770 C   0  0  0  0  0  0  0  0  0  0  0  0
    4.6082   -5.7112    2.7143 C   0  0  0  0  0  0  0  0  0  0  0  0
    4.1126   -5.1498    1.5292 C   0  0  0  0  0  0  0  0  0  0  0  0
    4.2464   -3.7822    1.2797 C   0  0  0  0  0  0  0  0  0  0  0  0
    4.8446   -2.9941    2.2501 C   0  0  0  0  0  0  0  0  0  0  0  0
    7.9569    1.4786   -1.4474 H   0  0  0  0  0  0  0  0  0  0  0  0
    7.2834    0.0113   -2.1570 H   0  0  0  0  0  0  0  0  0  0  0  0
    8.4327   -0.0917   -0.7982 H   0  0  0  0  0  0  0  0  0  0  0  0
    6.6225    2.6647   -0.1447 H   0  0  0  0  0  0  0  0  0  0  0  0
    6.1764    1.8948    1.3789 H   0  0  0  0  0  0  0  0  0  0  0  0
    4.9851    2.0486    0.0596 H   0  0  0  0  0  0  0  0  0  0  0  0
    6.1834   -1.5761   -0.2884 H   0  0  0  0  0  0  0  0  0  0  0  0
    3.8109   -1.1227    0.6226 H   0  0  0  0  0  0  0  0  0  0  0  0
    4.4396    0.2303    1.5508 H   0  0  0  0  0  0  0  0  0  0  0  0
    5.4581   -4.0384    6.2188 H   0  0  0  0  0  0  0  0  0  0  0  0
    6.2235   -6.1016    6.5159 H   0  0  0  0  0  0  0  0  0  0  0  0
    6.1468   -8.1428    7.8312 H   0  0  0  0  0  0  0  0  0  0  0  0
    6.6064   -9.3556    9.7696 H   0  0  0  0  0  0  0  0  0  0  0  0
    8.9324   -8.2122   11.4061 H   0  0  0  0  0  0  0  0  0  0  0  0
    9.0549   -9.1384    9.9038 H   0  0  0  0  0  0  0  0  0  0  0  0
    8.4218   -9.9030   11.3705 H   0  0  0  0  0  0  0  0  0  0  0  0
    6.4704   -7.6809   12.3314 H   0  0  0  0  0  0  0  0  0  0  0  0
    6.1310   -9.4099   12.1903 H   0  0  0  0  0  0  0  0  0  0  0  0
    5.0921   -8.2359   11.3698 H   0  0  0  0  0  0  0  0  0  0  0  0
    7.9308   -6.0527   11.1599 H   0  0  0  0  0  0  0  0  0  0  0  0
    7.9756   -3.9854    9.8400 H   0  0  0  0  0  0  0  0  0  0  0  0
    5.6458   -5.3721    4.5563 H   0  0  0  0  0  0  0  0  0  0  0  0
    4.5140   -6.7831    2.8798 H   0  0  0  0  0  0  0  0  0  0  0  0
    3.6312   -5.7885    0.7905 H   0  0  0  0  0  0  0  0  0  0  0  0
    3.8859   -3.3704    0.3436 H   0  0  0  0  0  0  0  0  0  0  0  0
  1  2  1  0  0  0  0
  1 29  1  0  0  0  0
  1 30  1  0  0  0  0
  1 31  1  0  0  0  0
  2  3  1  0  0  0  0
  2  4  2  0  0  0  0
  3 32  1  0  0  0  0
  3 33  1  0  0  0  0
  3 34  1  0  0  0  0
  4  5  1  0  0  0  0
  4 35  1  0  0  0  0
  5  6  1  0  0  0  0
  5 36  1  0  0  0  0
  5 37  1  0  0  0  0
  6  7  1  0  0  0  0
  6 28  1  0  0  0  0
  7  8  2  0  0  0  0
  7  9  1  0  0  0  0
  9 10  2  0  0  0  0
  9 23  1  0  0  0  0
 10 11  1  0  0  0  0
 11 12  1  0  0  0  0
 11 38  1  0  0  0  0
 12 13  2  0  0  0  0
 12 14  1  0  0  0  0
 14 15  1  0  0  0  0
 14 22  2  0  0  0  0
 15 16  2  0  0  0  0
 15 39  1  0  0  0  0
 16 17  1  0  0  0  0
 16 40  1  0  0  0  0
 17 18  1  0  0  0  0
 17 21  2  0  0  0  0
 18 19  1  0  0  0  0
 18 20  1  0  0  0  0
 18 41  1  0  0  0  0
 19 42  1  0  0  0  0
 19 43  1  0  0  0  0
 19 44  1  0  0  0  0
 20 45  1  0  0  0  0
 20 46  1  0  0  0  0
 20 47  1  0  0  0  0
 21 22  1  0  0  0  0
 21 48  1  0  0  0  0
 22 49  1  0  0  0  0
 23 24  1  0  0  0  0
 23 28  2  0  0  0  0
 24 25  2  0  0  0  0
 24 50  1  0  0  0  0
 25 26  1  0  0  0  0
 25 51  1  0  0  0  0
 26 27  2  0  0  0  0
 26 52  1  0  0  0  0
 27 28  1  0  0  0  0
 27 53  1  0  0  0  0
M  END
>  <Line_Number>
154


> <IC50>
14900

$$$$
