CHEMBL4294307
 OpenBabel09302502333D

 55 58  0  0  0  0  0  0  0  0999 V2000
    7.6629    1.0893    1.0553 C   0  0  0  0  0  0  0  0  0  0  0  0
    6.5005    0.8320    0.1371 C   0  0  0  0  0  0  0  0  0  0  0  0
    5.9983    1.9950   -0.6741 C   0  0  0  0  0  0  0  0  0  0  0  0
    5.9579   -0.4002    0.0512 C   0  0  0  0  0  0  0  0  0  0  0  0
    4.8128   -0.7957   -0.8347 C   0  0  0  0  0  0  0  0  0  0  0  0
    5.2237   -1.8679   -1.7056 N   0  0  0  0  0  0  0  0  0  0  0  0
    5.7542   -1.6679   -2.9700 C   0  0  0  0  0  0  0  0  0  0  0  0
    6.0125   -0.6305   -3.5350 O   0  0  0  0  0  0  0  0  0  0  0  0
    5.9296   -3.0811   -3.5673 C   0  0  0  0  0  0  0  0  0  0  0  0
    6.5210   -3.2553   -4.7103 N   0  0  0  0  0  0  0  0  0  0  0  0
    6.7574   -4.5208   -5.1452 N   0  0  0  0  0  0  0  0  0  0  0  0
    7.3585   -4.7869   -6.3684 C   0  0  0  0  0  0  0  0  0  0  0  0
    7.7924   -3.9670   -7.1684 O   0  0  0  0  0  0  0  0  0  0  0  0
    7.4804   -6.2486   -6.6599 C   0  0  0  0  0  0  0  0  0  0  0  0
    6.5237   -7.1512   -6.1723 C   0  0  0  0  0  0  0  0  0  0  0  0
    6.6746   -8.5224   -6.3753 C   0  0  0  0  0  0  0  0  0  0  0  0
    7.7275   -9.0024   -7.1556 C   0  0  0  0  0  0  0  0  0  0  0  0
    7.9436  -10.3344   -7.4302 O   0  0  0  0  0  0  0  0  0  0  0  0
    6.8825  -11.2049   -7.5590 C   0  0  0  0  0  0  0  0  0  0  0  0
    5.6150  -10.8506   -8.0308 C   0  0  0  0  0  0  0  0  0  0  0  0
    4.5988  -11.8048   -8.1044 C   0  0  0  0  0  0  0  0  0  0  0  0
    4.8628  -13.1317   -7.7718 C   0  0  0  0  0  0  0  0  0  0  0  0
    6.1426  -13.5048   -7.3634 C   0  0  0  0  0  0  0  0  0  0  0  0
    7.1491  -12.5422   -7.2528 C   0  0  0  0  0  0  0  0  0  0  0  0
    8.6753   -8.1048   -7.6591 C   0  0  0  0  0  0  0  0  0  0  0  0
    8.5537   -6.7297   -7.4141 C   0  0  0  0  0  0  0  0  0  0  0  0
    5.3446   -4.0063   -2.5757 C   0  0  0  0  0  0  0  0  0  0  0  0
    5.0744   -5.3675   -2.5982 C   0  0  0  0  0  0  0  0  0  0  0  0
    4.5252   -5.9587   -1.4571 C   0  0  0  0  0  0  0  0  0  0  0  0
    4.2326   -5.1897   -0.3237 C   0  0  0  0  0  0  0  0  0  0  0  0
    4.4532   -3.8105   -0.3274 C   0  0  0  0  0  0  0  0  0  0  0  0
    4.9940   -3.2332   -1.4662 C   0  0  0  0  0  0  0  0  0  0  0  0
    7.9680    2.1403    1.0426 H   0  0  0  0  0  0  0  0  0  0  0  0
    8.5296    0.4930    0.7514 H   0  0  0  0  0  0  0  0  0  0  0  0
    7.4024    0.8382    2.0886 H   0  0  0  0  0  0  0  0  0  0  0  0
    6.5421    2.9176   -0.4498 H   0  0  0  0  0  0  0  0  0  0  0  0
    4.9413    2.1847   -0.4578 H   0  0  0  0  0  0  0  0  0  0  0  0
    6.1162    1.7987   -1.7447 H   0  0  0  0  0  0  0  0  0  0  0  0
    6.3693   -1.1938    0.6736 H   0  0  0  0  0  0  0  0  0  0  0  0
    4.4686    0.0346   -1.4603 H   0  0  0  0  0  0  0  0  0  0  0  0
    3.9583   -1.1044   -0.2252 H   0  0  0  0  0  0  0  0  0  0  0  0
    6.7288   -5.2683   -4.4718 H   0  0  0  0  0  0  0  0  0  0  0  0
    5.6375   -6.8029   -5.6512 H   0  0  0  0  0  0  0  0  0  0  0  0
    5.9448   -9.1984   -5.9389 H   0  0  0  0  0  0  0  0  0  0  0  0
    5.3952   -9.8330   -8.3398 H   0  0  0  0  0  0  0  0  0  0  0  0
    3.6049  -11.5116   -8.4323 H   0  0  0  0  0  0  0  0  0  0  0  0
    4.0750  -13.8769   -7.8469 H   0  0  0  0  0  0  0  0  0  0  0  0
    6.3569  -14.5453   -7.1334 H   0  0  0  0  0  0  0  0  0  0  0  0
    8.1445  -12.8391   -6.9321 H   0  0  0  0  0  0  0  0  0  0  0  0
    9.5126   -8.4763   -8.2456 H   0  0  0  0  0  0  0  0  0  0  0  0
    9.2989   -6.0413   -7.8095 H   0  0  0  0  0  0  0  0  0  0  0  0
    5.2351   -5.9897   -3.4660 H   0  0  0  0  0  0  0  0  0  0  0  0
    4.3140   -7.0272   -1.4481 H   0  0  0  0  0  0  0  0  0  0  0  0
    3.8120   -5.6685    0.5585 H   0  0  0  0  0  0  0  0  0  0  0  0
    4.2015   -3.2276    0.5517 H   0  0  0  0  0  0  0  0  0  0  0  0
  1  2  1  0  0  0  0
  1 33  1  0  0  0  0
  1 34  1  0  0  0  0
  1 35  1  0  0  0  0
  2  3  1  0  0  0  0
  2  4  2  0  0  0  0
  3 36  1  0  0  0  0
  3 37  1  0  0  0  0
  3 38  1  0  0  0  0
  4  5  1  0  0  0  0
  4 39  1  0  0  0  0
  5  6  1  0  0  0  0
  5 40  1  0  0  0  0
  5 41  1  0  0  0  0
  6  7  1  0  0  0  0
  6 32  1  0  0  0  0
  7  8  2  0  0  0  0
  7  9  1  0  0  0  0
  9 10  2  0  0  0  0
  9 27  1  0  0  0  0
 10 11  1  0  0  0  0
 11 12  1  0  0  0  0
 11 42  1  0  0  0  0
 12 13  2  0  0  0  0
 12 14  1  0  0  0  0
 14 15  1  0  0  0  0
 14 26  2  0  0  0  0
 15 16  2  0  0  0  0
 15 43  1  0  0  0  0
 16 17  1  0  0  0  0
 16 44  1  0  0  0  0
 17 18  1  0  0  0  0
 17 25  2  0  0  0  0
 18 19  1  0  0  0  0
 19 20  1  0  0  0  0
 19 24  2  0  0  0  0
 20 21  2  0  0  0  0
 20 45  1  0  0  0  0
 21 22  1  0  0  0  0
 21 46  1  0  0  0  0
 22 23  2  0  0  0  0
 22 47  1  0  0  0  0
 23 24  1  0  0  0  0
 23 48  1  0  0  0  0
 24 49  1  0  0  0  0
 25 26  1  0  0  0  0
 25 50  1  0  0  0  0
 26 51  1  0  0  0  0
 27 28  1  0  0  0  0
 27 32  2  0  0  0  0
 28 29  2  0  0  0  0
 28 52  1  0  0  0  0
 29 30  1  0  0  0  0
 29 53  1  0  0  0  0
 30 31  2  0  0  0  0
 30 54  1  0  0  0  0
 31 32  1  0  0  0  0
 31 55  1  0  0  0  0
M  END
>  <Line_Number>
155


> <IC50>
22700

$$$$
