CHEMBL4290913
 OpenBabel09302502333D

 56 58  0  0  0  0  0  0  0  0999 V2000
    7.6366    0.9160    1.1066 C   0  0  0  0  0  0  0  0  0  0  0  0
    6.4551    0.8746    0.1783 C   0  0  0  0  0  0  0  0  0  0  0  0
    5.8282    2.1909   -0.1925 C   0  0  0  0  0  0  0  0  0  0  0  0
    5.9972   -0.3016   -0.2972 C   0  0  0  0  0  0  0  0  0  0  0  0
    4.8325   -0.4739   -1.2277 C   0  0  0  0  0  0  0  0  0  0  0  0
    5.2722   -1.1404   -2.4277 N   0  0  0  0  0  0  0  0  0  0  0  0
    5.7015   -0.4702   -3.5603 C   0  0  0  0  0  0  0  0  0  0  0  0
    5.8397    0.7236   -3.7380 O   0  0  0  0  0  0  0  0  0  0  0  0
    5.9550   -1.5660   -4.6126 C   0  0  0  0  0  0  0  0  0  0  0  0
    6.4099   -1.2759   -5.7920 N   0  0  0  0  0  0  0  0  0  0  0  0
    6.7328   -2.2901   -6.6408 N   0  0  0  0  0  0  0  0  0  0  0  0
    6.7907   -2.0730   -8.0133 C   0  0  0  0  0  0  0  0  0  0  0  0
    6.5534   -1.0150   -8.5846 O   0  0  0  0  0  0  0  0  0  0  0  0
    7.1542   -3.2743   -8.8218 C   0  0  0  0  0  0  0  0  0  0  0  0
    6.8689   -4.5638   -8.3703 C   0  0  0  0  0  0  0  0  0  0  0  0
    7.2069   -5.6811   -9.1349 C   0  0  0  0  0  0  0  0  0  0  0  0
    7.8275   -5.5511  -10.3861 C   0  0  0  0  0  0  0  0  0  0  0  0
    8.2009   -6.7767  -11.2392 C   0  0  0  0  0  0  0  0  0  0  0  0
    7.8651   -8.1182  -10.5447 C   0  0  0  0  0  0  0  0  0  0  0  0
    7.4366   -6.7361  -12.5784 C   0  0  0  0  0  0  0  0  0  0  0  0
    9.7144   -6.7906  -11.5380 C   0  0  0  0  0  0  0  0  0  0  0  0
    8.0751   -4.2423  -10.8469 C   0  0  0  0  0  0  0  0  0  0  0  0
    7.7397   -3.1170  -10.0786 C   0  0  0  0  0  0  0  0  0  0  0  0
    5.5580   -2.8305   -3.9719 C   0  0  0  0  0  0  0  0  0  0  0  0
    5.4336   -4.1224   -4.4544 C   0  0  0  0  0  0  0  0  0  0  0  0
    5.0192   -5.1259   -3.5732 C   0  0  0  0  0  0  0  0  0  0  0  0
    4.7097   -4.8216   -2.2405 C   0  0  0  0  0  0  0  0  0  0  0  0
    4.7798   -3.5055   -1.7787 C   0  0  0  0  0  0  0  0  0  0  0  0
    5.1950   -2.5186   -2.6608 C   0  0  0  0  0  0  0  0  0  0  0  0
    7.8698    1.9375    1.4235 H   0  0  0  0  0  0  0  0  0  0  0  0
    8.5282    0.5149    0.6136 H   0  0  0  0  0  0  0  0  0  0  0  0
    7.4368    0.3330    2.0117 H   0  0  0  0  0  0  0  0  0  0  0  0
    6.3182    3.0335    0.3031 H   0  0  0  0  0  0  0  0  0  0  0  0
    4.7747    2.2091    0.1065 H   0  0  0  0  0  0  0  0  0  0  0  0
    5.8990    2.3614   -1.2717 H   0  0  0  0  0  0  0  0  0  0  0  0
    6.4949   -1.2188    0.0120 H   0  0  0  0  0  0  0  0  0  0  0  0
    4.3841    0.4809   -1.5154 H   0  0  0  0  0  0  0  0  0  0  0  0
    4.0451   -1.0558   -0.7380 H   0  0  0  0  0  0  0  0  0  0  0  0
    7.1870   -3.1029   -6.2436 H   0  0  0  0  0  0  0  0  0  0  0  0
    6.3470   -4.7352   -7.4393 H   0  0  0  0  0  0  0  0  0  0  0  0
    6.9521   -6.6526   -8.7209 H   0  0  0  0  0  0  0  0  0  0  0  0
    6.7891   -8.2146  -10.3544 H   0  0  0  0  0  0  0  0  0  0  0  0
    8.3881   -8.2116   -9.5842 H   0  0  0  0  0  0  0  0  0  0  0  0
    8.1626   -8.9747  -11.1580 H   0  0  0  0  0  0  0  0  0  0  0  0
    6.3530   -6.7799  -12.4207 H   0  0  0  0  0  0  0  0  0  0  0  0
    7.7164   -7.5835  -13.2155 H   0  0  0  0  0  0  0  0  0  0  0  0
    7.6504   -5.8243  -13.1471 H   0  0  0  0  0  0  0  0  0  0  0  0
   10.3038   -6.8470  -10.6160 H   0  0  0  0  0  0  0  0  0  0  0  0
   10.0378   -5.8999  -12.0870 H   0  0  0  0  0  0  0  0  0  0  0  0
    9.9805   -7.6594  -12.1540 H   0  0  0  0  0  0  0  0  0  0  0  0
    8.5275   -4.0764  -11.8230 H   0  0  0  0  0  0  0  0  0  0  0  0
    7.9333   -2.1190  -10.4687 H   0  0  0  0  0  0  0  0  0  0  0  0
    5.6071   -4.3723   -5.4876 H   0  0  0  0  0  0  0  0  0  0  0  0
    4.9226   -6.1518   -3.9241 H   0  0  0  0  0  0  0  0  0  0  0  0
    4.3919   -5.6142   -1.5662 H   0  0  0  0  0  0  0  0  0  0  0  0
    4.5068   -3.2829   -0.7528 H   0  0  0  0  0  0  0  0  0  0  0  0
  1  2  1  0  0  0  0
  1 30  1  0  0  0  0
  1 31  1  0  0  0  0
  1 32  1  0  0  0  0
  2  3  1  0  0  0  0
  2  4  2  0  0  0  0
  3 33  1  0  0  0  0
  3 34  1  0  0  0  0
  3 35  1  0  0  0  0
  4  5  1  0  0  0  0
  4 36  1  0  0  0  0
  5  6  1  0  0  0  0
  5 37  1  0  0  0  0
  5 38  1  0  0  0  0
  6  7  1  0  0  0  0
  6 29  1  0  0  0  0
  7  8  2  0  0  0  0
  7  9  1  0  0  0  0
  9 10  2  0  0  0  0
  9 24  1  0  0  0  0
 10 11  1  0  0  0  0
 11 12  1  0  0  0  0
 11 39  1  0  0  0  0
 12 13  2  0  0  0  0
 12 14  1  0  0  0  0
 14 15  1  0  0  0  0
 14 23  2  0  0  0  0
 15 16  2  0  0  0  0
 15 40  1  0  0  0  0
 16 17  1  0  0  0  0
 16 41  1  0  0  0  0
 17 18  1  0  0  0  0
 17 22  2  0  0  0  0
 18 19  1  0  0  0  0
 18 20  1  0  0  0  0
 18 21  1  0  0  0  0
 19 42  1  0  0  0  0
 19 43  1  0  0  0  0
 19 44  1  0  0  0  0
 20 45  1  0  0  0  0
 20 46  1  0  0  0  0
 20 47  1  0  0  0  0
 21 48  1  0  0  0  0
 21 49  1  0  0  0  0
 21 50  1  0  0  0  0
 22 23  1  0  0  0  0
 22 51  1  0  0  0  0
 23 52  1  0  0  0  0
 24 25  1  0  0  0  0
 24 29  2  0  0  0  0
 25 26  2  0  0  0  0
 25 53  1  0  0  0  0
 26 27  1  0  0  0  0
 26 54  1  0  0  0  0
 27 28  2  0  0  0  0
 27 55  1  0  0  0  0
 28 29  1  0  0  0  0
 28 56  1  0  0  0  0
M  END
>  <Line_Number>
156


> <IC50>
19500

$$$$
