CHEMBL4293217
 OpenBabel09302502333D

 47 49  0  0  0  0  0  0  0  0999 V2000
    1.1001   -0.6493   -0.0998 C   0  0  0  0  0  0  0  0  0  0  0  0
    2.6053   -0.6100   -0.0962 C   0  0  0  0  0  0  0  0  0  0  0  0
    3.3041   -1.3140    1.0329 C   0  0  0  0  0  0  0  0  0  0  0  0
    3.2686    0.0895   -1.0408 C   0  0  0  0  0  0  0  0  0  0  0  0
    4.7590    0.2767   -1.1152 C   0  0  0  0  0  0  0  0  0  0  0  0
    5.1898    0.3621   -2.4890 N   0  0  0  0  0  0  0  0  0  0  0  0
    5.2894    1.5561   -3.1794 C   0  0  0  0  0  0  0  0  0  0  0  0
    5.0493    2.6805   -2.7984 O   0  0  0  0  0  0  0  0  0  0  0  0
    5.8166    1.1794   -4.5765 C   0  0  0  0  0  0  0  0  0  0  0  0
    6.0587    2.0890   -5.4696 N   0  0  0  0  0  0  0  0  0  0  0  0
    6.6492    1.7307   -6.6413 N   0  0  0  0  0  0  0  0  0  0  0  0
    6.5404    2.5592   -7.7498 C   0  0  0  0  0  0  0  0  0  0  0  0
    5.9219    3.6181   -7.7876 O   0  0  0  0  0  0  0  0  0  0  0  0
    7.2128    2.0754   -8.9944 C   0  0  0  0  0  0  0  0  0  0  0  0
    7.4872    0.7195   -9.2192 C   0  0  0  0  0  0  0  0  0  0  0  0
    8.0415    0.2992  -10.4281 C   0  0  0  0  0  0  0  0  0  0  0  0
    8.3065    1.2271  -11.4346 C   0  0  0  0  0  0  0  0  0  0  0  0
    8.0192    2.5859  -11.2431 C   0  0  0  0  0  0  0  0  0  0  0  0
    8.2445    3.5900  -12.3472 C   0  0  0  0  0  0  0  0  0  0  0  0
    8.6886    3.0252  -13.5059 F   0  0  0  0  0  0  0  0  0  0  0  0
    7.1103    4.2659  -12.6768 F   0  0  0  0  0  0  0  0  0  0  0  0
    9.1670    4.5333  -12.0159 F   0  0  0  0  0  0  0  0  0  0  0  0
    7.4842    3.0024  -10.0113 C   0  0  0  0  0  0  0  0  0  0  0  0
    5.9332   -0.2846   -4.5786 C   0  0  0  0  0  0  0  0  0  0  0  0
    6.2745   -1.1836   -5.5746 C   0  0  0  0  0  0  0  0  0  0  0  0
    6.3121   -2.5417   -5.2534 C   0  0  0  0  0  0  0  0  0  0  0  0
    5.9837   -2.9777   -3.9615 C   0  0  0  0  0  0  0  0  0  0  0  0
    5.5906   -2.0659   -2.9758 C   0  0  0  0  0  0  0  0  0  0  0  0
    5.5661   -0.7195   -3.3015 C   0  0  0  0  0  0  0  0  0  0  0  0
    0.7036   -1.2059    0.7556 H   0  0  0  0  0  0  0  0  0  0  0  0
    0.7269   -1.1331   -1.0078 H   0  0  0  0  0  0  0  0  0  0  0  0
    0.6896    0.3647   -0.0417 H   0  0  0  0  0  0  0  0  0  0  0  0
    2.5966   -1.7573    1.7405 H   0  0  0  0  0  0  0  0  0  0  0  0
    3.9256   -0.6108    1.5979 H   0  0  0  0  0  0  0  0  0  0  0  0
    3.9342   -2.1232    0.6504 H   0  0  0  0  0  0  0  0  0  0  0  0
    2.6874    0.6143   -1.7992 H   0  0  0  0  0  0  0  0  0  0  0  0
    5.3120   -0.5217   -0.6113 H   0  0  0  0  0  0  0  0  0  0  0  0
    5.0111    1.2205   -0.6192 H   0  0  0  0  0  0  0  0  0  0  0  0
    7.3886    1.0419   -6.5972 H   0  0  0  0  0  0  0  0  0  0  0  0
    7.2365   -0.0391   -8.4877 H   0  0  0  0  0  0  0  0  0  0  0  0
    8.2388   -0.7573  -10.5981 H   0  0  0  0  0  0  0  0  0  0  0  0
    8.7153    0.8786  -12.3812 H   0  0  0  0  0  0  0  0  0  0  0  0
    7.2501    4.0566   -9.8538 H   0  0  0  0  0  0  0  0  0  0  0  0
    6.4826   -0.8763   -6.5869 H   0  0  0  0  0  0  0  0  0  0  0  0
    6.5876   -3.2709   -6.0135 H   0  0  0  0  0  0  0  0  0  0  0  0
    6.0197   -4.0408   -3.7306 H   0  0  0  0  0  0  0  0  0  0  0  0
    5.3112   -2.4239   -1.9912 H   0  0  0  0  0  0  0  0  0  0  0  0
  1  2  1  0  0  0  0
  1 30  1  0  0  0  0
  1 31  1  0  0  0  0
  1 32  1  0  0  0  0
  2  3  1  0  0  0  0
  2  4  2  0  0  0  0
  3 33  1  0  0  0  0
  3 34  1  0  0  0  0
  3 35  1  0  0  0  0
  4  5  1  0  0  0  0
  4 36  1  0  0  0  0
  5  6  1  0  0  0  0
  5 37  1  0  0  0  0
  5 38  1  0  0  0  0
  6  7  1  0  0  0  0
  6 29  1  0  0  0  0
  7  8  2  0  0  0  0
  7  9  1  0  0  0  0
  9 10  2  0  0  0  0
  9 24  1  0  0  0  0
 10 11  1  0  0  0  0
 11 12  1  0  0  0  0
 11 39  1  0  0  0  0
 12 13  2  0  0  0  0
 12 14  1  0  0  0  0
 14 15  1  0  0  0  0
 14 23  2  0  0  0  0
 15 16  2  0  0  0  0
 15 40  1  0  0  0  0
 16 17  1  0  0  0  0
 16 41  1  0  0  0  0
 17 18  2  0  0  0  0
 17 42  1  0  0  0  0
 18 19  1  0  0  0  0
 18 23  1  0  0  0  0
 19 20  1  0  0  0  0
 19 21  1  0  0  0  0
 19 22  1  0  0  0  0
 23 43  1  0  0  0  0
 24 25  1  0  0  0  0
 24 29  2  0  0  0  0
 25 26  2  0  0  0  0
 25 44  1  0  0  0  0
 26 27  1  0  0  0  0
 26 45  1  0  0  0  0
 27 28  2  0  0  0  0
 27 46  1  0  0  0  0
 28 29  1  0  0  0  0
 28 47  1  0  0  0  0
M  END
>  <Line_Number>
157


> <IC50>
65800

$$$$
