CHEMBL4277785
 OpenBabel09302502333D

 48 50  0  0  0  0  0  0  0  0999 V2000
    2.9740    0.4497   -0.7251 C   0  0  0  0  0  0  0  0  0  0  0  0
    3.3052   -0.9170   -0.9465 O   0  0  0  0  0  0  0  0  0  0  0  0
    3.6444   -1.6542    0.1552 C   0  0  0  0  0  0  0  0  0  0  0  0
    4.0029   -2.9795   -0.1143 C   0  0  0  0  0  0  0  0  0  0  0  0
    4.3809   -3.8453    0.9210 C   0  0  0  0  0  0  0  0  0  0  0  0
    4.3951   -3.3934    2.2450 C   0  0  0  0  0  0  0  0  0  0  0  0
    4.8977   -4.2925    3.3229 C   0  0  0  0  0  0  0  0  0  0  0  0
    5.7336   -5.1392    3.0431 O   0  0  0  0  0  0  0  0  0  0  0  0
    4.3879   -4.0365    4.5917 N   0  0  0  0  0  0  0  0  0  0  0  0
    4.9321   -4.6445    5.6806 N   0  0  0  0  0  0  0  0  0  0  0  0
    4.8671   -4.0553    6.8370 C   0  0  0  0  0  0  0  0  0  0  0  0
    5.5031   -4.6918    8.0921 C   0  0  0  0  0  0  0  0  0  0  0  0
    5.9446   -5.8196    8.1643 O   0  0  0  0  0  0  0  0  0  0  0  0
    5.4193   -3.7258    9.0813 N   0  0  0  0  0  0  0  0  0  0  0  0
    5.8147   -3.9404   10.4555 C   0  0  0  0  0  0  0  0  0  0  0  0
    7.2053   -3.4226   10.7093 C   0  0  0  0  0  0  0  0  0  0  0  0
    7.6641   -2.8666   11.8517 C   0  0  0  0  0  0  0  0  0  0  0  0
    6.8419   -2.6373   13.0918 C   0  0  0  0  0  0  0  0  0  0  0  0
    9.1102   -2.4616   11.9991 C   0  0  0  0  0  0  0  0  0  0  0  0
    4.7382   -2.5931    8.6090 C   0  0  0  0  0  0  0  0  0  0  0  0
    4.4277   -1.4413    9.3161 C   0  0  0  0  0  0  0  0  0  0  0  0
    3.7149   -0.4353    8.6589 C   0  0  0  0  0  0  0  0  0  0  0  0
    3.3209   -0.5932    7.3237 C   0  0  0  0  0  0  0  0  0  0  0  0
    3.6357   -1.7580    6.6203 C   0  0  0  0  0  0  0  0  0  0  0  0
    4.3534   -2.7479    7.2730 C   0  0  0  0  0  0  0  0  0  0  0  0
    4.0544   -2.0661    2.5159 C   0  0  0  0  0  0  0  0  0  0  0  0
    3.6776   -1.2132    1.4796 C   0  0  0  0  0  0  0  0  0  0  0  0
    3.3689    0.0477    1.8139 F   0  0  0  0  0  0  0  0  0  0  0  0
    2.7221    0.8983   -1.6906 H   0  0  0  0  0  0  0  0  0  0  0  0
    3.8292    1.0009   -0.3181 H   0  0  0  0  0  0  0  0  0  0  0  0
    2.0938    0.5423   -0.0807 H   0  0  0  0  0  0  0  0  0  0  0  0
    4.0060   -3.3401   -1.1415 H   0  0  0  0  0  0  0  0  0  0  0  0
    4.6858   -4.8644    0.6885 H   0  0  0  0  0  0  0  0  0  0  0  0
    3.4873   -3.5932    4.6895 H   0  0  0  0  0  0  0  0  0  0  0  0
    5.8035   -5.0172   10.6571 H   0  0  0  0  0  0  0  0  0  0  0  0
    5.0670   -3.4769   11.1034 H   0  0  0  0  0  0  0  0  0  0  0  0
    7.9088   -3.5746    9.8912 H   0  0  0  0  0  0  0  0  0  0  0  0
    5.8024   -2.9550   12.9914 H   0  0  0  0  0  0  0  0  0  0  0  0
    6.8361   -1.5726   13.3477 H   0  0  0  0  0  0  0  0  0  0  0  0
    7.2677   -3.1927   13.9342 H   0  0  0  0  0  0  0  0  0  0  0  0
    9.6957   -2.6593   11.0959 H   0  0  0  0  0  0  0  0  0  0  0  0
    9.5750   -3.0167   12.8220 H   0  0  0  0  0  0  0  0  0  0  0  0
    9.1862   -1.3922   12.2215 H   0  0  0  0  0  0  0  0  0  0  0  0
    4.7263   -1.3044   10.3487 H   0  0  0  0  0  0  0  0  0  0  0  0
    3.4638    0.4816    9.1893 H   0  0  0  0  0  0  0  0  0  0  0  0
    2.7670    0.2037    6.8288 H   0  0  0  0  0  0  0  0  0  0  0  0
    3.3055   -1.8434    5.5996 H   0  0  0  0  0  0  0  0  0  0  0  0
    4.1281   -1.6468    3.5109 H   0  0  0  0  0  0  0  0  0  0  0  0
  1  2  1  0  0  0  0
  1 29  1  0  0  0  0
  1 30  1  0  0  0  0
  1 31  1  0  0  0  0
  2  3  1  0  0  0  0
  3  4  1  0  0  0  0
  3 27  2  0  0  0  0
  4  5  2  0  0  0  0
  4 32  1  0  0  0  0
  5  6  1  0  0  0  0
  5 33  1  0  0  0  0
  6  7  1  0  0  0  0
  6 26  2  0  0  0  0
  7  8  2  0  0  0  0
  7  9  1  0  0  0  0
  9 10  1  0  0  0  0
  9 34  1  0  0  0  0
 10 11  2  0  0  0  0
 11 12  1  0  0  0  0
 11 25  1  0  0  0  0
 12 13  2  0  0  0  0
 12 14  1  0  0  0  0
 14 15  1  0  0  0  0
 14 20  1  0  0  0  0
 15 16  1  0  0  0  0
 15 35  1  0  0  0  0
 15 36  1  0  0  0  0
 16 17  2  0  0  0  0
 16 37  1  0  0  0  0
 17 18  1  0  0  0  0
 17 19  1  0  0  0  0
 18 38  1  0  0  0  0
 18 39  1  0  0  0  0
 18 40  1  0  0  0  0
 19 41  1  0  0  0  0
 19 42  1  0  0  0  0
 19 43  1  0  0  0  0
 20 21  1  0  0  0  0
 20 25  2  0  0  0  0
 21 22  2  0  0  0  0
 21 44  1  0  0  0  0
 22 23  1  0  0  0  0
 22 45  1  0  0  0  0
 23 24  2  0  0  0  0
 23 46  1  0  0  0  0
 24 25  1  0  0  0  0
 24 47  1  0  0  0  0
 26 27  1  0  0  0  0
 26 48  1  0  0  0  0
 27 28  1  0  0  0  0
M  END
>  <Line_Number>
158


> <IC50>
3820

$$$$
