CHEMBL4281503
 OpenBabel09302502333D

 44 46  0  0  0  0  0  0  0  0999 V2000
    7.0110    0.5947    2.4037 C   0  0  0  0  0  0  0  0  0  0  0  0
    5.8624    0.9279    1.4915 C   0  0  0  0  0  0  0  0  0  0  0  0
    4.6197    1.4875    2.1283 C   0  0  0  0  0  0  0  0  0  0  0  0
    5.9567    0.7043    0.1644 C   0  0  0  0  0  0  0  0  0  0  0  0
    4.8568    0.9305   -0.8349 C   0  0  0  0  0  0  0  0  0  0  0  0
    5.2629    1.9037   -1.8228 N   0  0  0  0  0  0  0  0  0  0  0  0
    5.0481    3.2636   -1.6990 C   0  0  0  0  0  0  0  0  0  0  0  0
    4.5598    3.8802   -0.7686 O   0  0  0  0  0  0  0  0  0  0  0  0
    5.5719    3.8917   -3.0089 C   0  0  0  0  0  0  0  0  0  0  0  0
    5.5491    5.1755   -3.1903 N   0  0  0  0  0  0  0  0  0  0  0  0
    6.0843    5.7323   -4.3131 N   0  0  0  0  0  0  0  0  0  0  0  0
    6.0594    7.1084   -4.4868 C   0  0  0  0  0  0  0  0  0  0  0  0
    5.5792    7.9213   -3.7113 O   0  0  0  0  0  0  0  0  0  0  0  0
    6.6992    7.6030   -5.7441 C   0  0  0  0  0  0  0  0  0  0  0  0
    6.7424    6.8349   -6.9163 C   0  0  0  0  0  0  0  0  0  0  0  0
    7.2394    7.3919   -8.0999 C   0  0  0  0  0  0  0  0  0  0  0  0
    7.6963    8.7098   -8.1097 C   0  0  0  0  0  0  0  0  0  0  0  0
    8.2894    9.4870   -9.7281 Br  0  0  0  0  0  0  0  0  0  0  0  0
    7.6868    9.4703   -6.9422 C   0  0  0  0  0  0  0  0  0  0  0  0
    7.1868    8.9172   -5.7616 C   0  0  0  0  0  0  0  0  0  0  0  0
    6.0464    2.7636   -3.8243 C   0  0  0  0  0  0  0  0  0  0  0  0
    6.5617    2.6950   -5.1090 C   0  0  0  0  0  0  0  0  0  0  0  0
    7.0234    1.4628   -5.5727 C   0  0  0  0  0  0  0  0  0  0  0  0
    6.9295    0.3187   -4.7692 C   0  0  0  0  0  0  0  0  0  0  0  0
    6.3361    0.3807   -3.5047 C   0  0  0  0  0  0  0  0  0  0  0  0
    5.8901    1.6113   -3.0461 C   0  0  0  0  0  0  0  0  0  0  0  0
    6.7835    0.8256    3.4493 H   0  0  0  0  0  0  0  0  0  0  0  0
    7.9051    1.1637    2.1291 H   0  0  0  0  0  0  0  0  0  0  0  0
    7.2401   -0.4749    2.3511 H   0  0  0  0  0  0  0  0  0  0  0  0
    4.7232    1.5905    3.2126 H   0  0  0  0  0  0  0  0  0  0  0  0
    3.7662    0.8258    1.9466 H   0  0  0  0  0  0  0  0  0  0  0  0
    4.3939    2.4813    1.7272 H   0  0  0  0  0  0  0  0  0  0  0  0
    6.8808    0.2833   -0.2248 H   0  0  0  0  0  0  0  0  0  0  0  0
    3.9458    1.2754   -0.3380 H   0  0  0  0  0  0  0  0  0  0  0  0
    4.6107   -0.0111   -1.3386 H   0  0  0  0  0  0  0  0  0  0  0  0
    6.7220    5.1953   -4.8724 H   0  0  0  0  0  0  0  0  0  0  0  0
    6.3393    5.8272   -6.9448 H   0  0  0  0  0  0  0  0  0  0  0  0
    7.2342    6.8061   -9.0164 H   0  0  0  0  0  0  0  0  0  0  0  0
    8.0376   10.4994   -6.9437 H   0  0  0  0  0  0  0  0  0  0  0  0
    7.1504    9.5221   -4.8565 H   0  0  0  0  0  0  0  0  0  0  0  0
    6.6128    3.5400   -5.7783 H   0  0  0  0  0  0  0  0  0  0  0  0
    7.4609    1.3910   -6.5663 H   0  0  0  0  0  0  0  0  0  0  0  0
    7.3163   -0.6280   -5.1421 H   0  0  0  0  0  0  0  0  0  0  0  0
    6.2598   -0.5233   -2.9096 H   0  0  0  0  0  0  0  0  0  0  0  0
  1  2  1  0  0  0  0
  1 27  1  0  0  0  0
  1 28  1  0  0  0  0
  1 29  1  0  0  0  0
  2  3  1  0  0  0  0
  2  4  2  0  0  0  0
  3 30  1  0  0  0  0
  3 31  1  0  0  0  0
  3 32  1  0  0  0  0
  4  5  1  0  0  0  0
  4 33  1  0  0  0  0
  5  6  1  0  0  0  0
  5 34  1  0  0  0  0
  5 35  1  0  0  0  0
  6  7  1  0  0  0  0
  6 26  1  0  0  0  0
  7  8  2  0  0  0  0
  7  9  1  0  0  0  0
  9 10  2  0  0  0  0
  9 21  1  0  0  0  0
 10 11  1  0  0  0  0
 11 12  1  0  0  0  0
 11 36  1  0  0  0  0
 12 13  2  0  0  0  0
 12 14  1  0  0  0  0
 14 15  1  0  0  0  0
 14 20  2  0  0  0  0
 15 16  2  0  0  0  0
 15 37  1  0  0  0  0
 16 17  1  0  0  0  0
 16 38  1  0  0  0  0
 17 18  1  0  0  0  0
 17 19  2  0  0  0  0
 19 20  1  0  0  0  0
 19 39  1  0  0  0  0
 20 40  1  0  0  0  0
 21 22  1  0  0  0  0
 21 26  2  0  0  0  0
 22 23  2  0  0  0  0
 22 41  1  0  0  0  0
 23 24  1  0  0  0  0
 23 42  1  0  0  0  0
 24 25  2  0  0  0  0
 24 43  1  0  0  0  0
 25 26  1  0  0  0  0
 25 44  1  0  0  0  0
M  END
>  <Line_Number>
159


> <IC50>
83900

$$$$
