22662485.0
 OpenBabel09302502333D

 39 39  0  0  0  0  0  0  0  0999 V2000
    7.2922    3.9629   -1.9245 C   0  0  0  0  0  0  0  0  0  0  0  0
    6.7037    2.7140   -1.2907 C   0  0  0  0  0  0  0  0  0  0  0  0
    7.1803    1.4566   -2.0088 C   0  0  0  0  0  0  0  0  0  0  0  0
    6.5844    0.1990   -1.3783 C   0  0  0  0  0  0  0  0  0  0  0  0
    7.0942   -1.0399   -2.1046 C   0  0  0  0  0  0  0  0  0  0  0  0
    6.5553   -2.3270   -1.4852 C   0  0  0  0  0  0  0  0  0  0  0  0
    7.0497   -3.5724   -2.2206 C   0  0  0  0  0  0  0  0  0  0  0  0
    8.5744   -3.7213   -2.1898 C   0  0  0  0  0  0  0  0  0  0  0  0
    9.0013   -4.9567   -2.9322 C   0  0  0  0  0  0  0  0  0  0  0  0
    9.2920   -4.8846   -4.3088 C   0  0  0  0  0  0  0  0  0  0  0  0
    9.6174   -6.0343   -5.0372 C   0  0  0  0  0  0  0  0  0  0  0  0
    9.6446   -7.2616   -4.3876 C   0  0  0  0  0  0  0  0  0  0  0  0
    9.9282   -8.4231   -5.0495 O   0  0  0  0  0  0  0  0  0  0  0  0
    9.3680   -7.3435   -3.0273 C   0  0  0  0  0  0  0  0  0  0  0  0
    9.3838   -8.5498   -2.3838 O   0  0  0  0  0  0  0  0  0  0  0  0
    9.0522   -6.2010   -2.3029 C   0  0  0  0  0  0  0  0  0  0  0  0
    8.7758   -6.3106   -0.9691 O   0  0  0  0  0  0  0  0  0  0  0  0
    6.9394    4.8553   -1.3993 H   0  0  0  0  0  0  0  0  0  0  0  0
    6.9958    4.0450   -2.9751 H   0  0  0  0  0  0  0  0  0  0  0  0
    8.3858    3.9482   -1.8767 H   0  0  0  0  0  0  0  0  0  0  0  0
    5.6098    2.7697   -1.3259 H   0  0  0  0  0  0  0  0  0  0  0  0
    6.9950    2.6716   -0.2348 H   0  0  0  0  0  0  0  0  0  0  0  0
    8.2758    1.4040   -1.9699 H   0  0  0  0  0  0  0  0  0  0  0  0
    6.8995    1.5044   -3.0682 H   0  0  0  0  0  0  0  0  0  0  0  0
    5.4899    0.2362   -1.4251 H   0  0  0  0  0  0  0  0  0  0  0  0
    6.8661    0.1467   -0.3196 H   0  0  0  0  0  0  0  0  0  0  0  0
    8.1882   -1.0302   -2.0630 H   0  0  0  0  0  0  0  0  0  0  0  0
    6.8093   -0.9954   -3.1631 H   0  0  0  0  0  0  0  0  0  0  0  0
    5.4584   -2.3150   -1.5164 H   0  0  0  0  0  0  0  0  0  0  0  0
    6.8429   -2.3858   -0.4286 H   0  0  0  0  0  0  0  0  0  0  0  0
    6.6965   -3.5429   -3.2599 H   0  0  0  0  0  0  0  0  0  0  0  0
    6.5822   -4.4534   -1.7627 H   0  0  0  0  0  0  0  0  0  0  0  0
    8.9369   -3.7502   -1.1556 H   0  0  0  0  0  0  0  0  0  0  0  0
    9.0668   -2.8609   -2.6550 H   0  0  0  0  0  0  0  0  0  0  0  0
    9.2519   -3.9246   -4.8204 H   0  0  0  0  0  0  0  0  0  0  0  0
    9.8317   -5.9454   -6.0968 H   0  0  0  0  0  0  0  0  0  0  0  0
   10.0662   -8.2066   -5.9885 H   0  0  0  0  0  0  0  0  0  0  0  0
    9.5938   -9.1917   -3.0944 H   0  0  0  0  0  0  0  0  0  0  0  0
    8.8884   -7.2631   -0.7748 H   0  0  0  0  0  0  0  0  0  0  0  0
  1  2  1  0  0  0  0
  1 18  1  0  0  0  0
  1 19  1  0  0  0  0
  1 20  1  0  0  0  0
  2  3  1  0  0  0  0
  2 21  1  0  0  0  0
  2 22  1  0  0  0  0
  3  4  1  0  0  0  0
  3 23  1  0  0  0  0
  3 24  1  0  0  0  0
  4  5  1  0  0  0  0
  4 25  1  0  0  0  0
  4 26  1  0  0  0  0
  5  6  1  0  0  0  0
  5 27  1  0  0  0  0
  5 28  1  0  0  0  0
  6  7  1  0  0  0  0
  6 29  1  0  0  0  0
  6 30  1  0  0  0  0
  7  8  1  0  0  0  0
  7 31  1  0  0  0  0
  7 32  1  0  0  0  0
  8  9  1  0  0  0  0
  8 33  1  0  0  0  0
  8 34  1  0  0  0  0
  9 10  1  0  0  0  0
  9 16  2  0  0  0  0
 10 11  2  0  0  0  0
 10 35  1  0  0  0  0
 11 12  1  0  0  0  0
 11 36  1  0  0  0  0
 12 13  1  0  0  0  0
 12 14  2  0  0  0  0
 13 37  1  0  0  0  0
 14 15  1  0  0  0  0
 14 16  1  0  0  0  0
 15 38  1  0  0  0  0
 16 17  1  0  0  0  0
 17 39  1  0  0  0  0
M  END
>  <Line_Number>
15


> <IC50>
103000

$$$$
