
 OpenBabel09302502332D

 27 29  0  0  0  0  0  0  0  0999 V2000
    1.7321   -1.0000    0.0000 C   0  0  0  0  0  0  0  0  0  0  0  0
    0.8660   -1.5000    0.0000 O   0  0  0  0  0  0  0  0  0  0  0  0
   -0.0000   -1.0000    0.0000 C   0  0  0  0  0  0  0  0  0  0  0  0
   -0.8660   -1.5000    0.0000 C   0  0  0  0  0  0  0  0  0  0  0  0
   -1.7321   -1.0000    0.0000 C   0  0  0  0  0  0  0  0  0  0  0  0
   -1.7321    0.0000    0.0000 C   0  0  0  0  0  0  0  0  0  0  0  0
   -2.5981    0.5000    0.0000 C   0  0  0  0  0  0  0  0  0  0  0  0
   -2.5981    1.5000    0.0000 O   0  0  0  0  0  0  0  0  0  0  0  0
   -3.4641    0.0000    0.0000 N   0  0  0  0  0  0  0  0  0  0  0  0
   -4.3301    0.5000    0.0000 N   0  0  0  0  0  0  0  0  0  0  0  0
   -5.1962    0.0000    0.0000 C   0  0  0  0  0  0  0  0  0  0  0  0
   -6.1097    0.4067    0.0000 C   0  0  0  0  0  0  0  0  0  0  0  0
   -6.3176    1.3849    0.0000 O   0  0  0  0  0  0  0  0  0  0  0  0
   -6.7788   -0.3364    0.0000 N   0  0  0  0  0  0  0  0  0  0  0  0
   -7.7734   -0.2319    0.0000 C   0  0  0  0  0  0  0  0  0  0  0  0
   -8.3611   -1.0409    0.0000 C   0  0  0  0  0  0  0  0  0  0  0  0
   -9.3557   -0.9364    0.0000 C   0  0  0  0  0  0  0  0  0  0  0  0
   -9.7624   -0.0228    0.0000 C   0  0  0  0  0  0  0  0  0  0  0  0
   -9.9434   -1.7454    0.0000 C   0  0  0  0  0  0  0  0  0  0  0  0
   -6.2788   -1.2024    0.0000 C   0  0  0  0  0  0  0  0  0  0  0  0
   -6.5878   -2.1535    0.0000 C   0  0  0  0  0  0  0  0  0  0  0  0
   -5.9187   -2.8966    0.0000 C   0  0  0  0  0  0  0  0  0  0  0  0
   -4.9406   -2.6887    0.0000 C   0  0  0  0  0  0  0  0  0  0  0  0
   -4.6316   -1.7377    0.0000 C   0  0  0  0  0  0  0  0  0  0  0  0
   -5.3007   -0.9945    0.0000 C   0  0  0  0  0  0  0  0  0  0  0  0
   -0.8660    0.5000    0.0000 C   0  0  0  0  0  0  0  0  0  0  0  0
    0.0000   -0.0000    0.0000 C   0  0  0  0  0  0  0  0  0  0  0  0
  1  2  1  0  0  0  0
  2  3  1  0  0  0  0
  3 27  2  0  0  0  0
  3  4  1  0  0  0  0
  4  5  2  0  0  0  0
  5  6  1  0  0  0  0
  6  7  1  0  0  0  0
  6 26  2  0  0  0  0
  7  8  2  0  0  0  0
  7  9  1  0  0  0  0
  9 10  1  0  0  0  0
 10 11  2  0  0  0  0
 11 25  1  0  0  0  0
 11 12  1  0  0  0  0
 12 13  2  0  0  0  0
 12 14  1  0  0  0  0
 14 15  1  0  0  0  0
 14 20  1  0  0  0  0
 15 16  1  0  0  0  0
 16 17  2  0  0  0  0
 17 18  1  0  0  0  0
 17 19  1  0  0  0  0
 20 25  2  0  0  0  0
 20 21  1  0  0  0  0
 21 22  2  0  0  0  0
 22 23  1  0  0  0  0
 23 24  2  0  0  0  0
 24 25  1  0  0  0  0
 26 27  1  0  0  0  0
M  END

> <IC50>
6990

$$$$
