CHEMBL4285715
 OpenBabel09302502333D

 42 44  0  0  0  0  0  0  0  0999 V2000
    0.9656    0.1434   -0.8536 C   0  0  0  0  0  0  0  0  0  0  0  0
    2.2555    0.5352   -0.1840 C   0  0  0  0  0  0  0  0  0  0  0  0
    2.2121    0.7452    1.3046 C   0  0  0  0  0  0  0  0  0  0  0  0
    3.3777    0.7004   -0.9132 C   0  0  0  0  0  0  0  0  0  0  0  0
    4.7271    1.1185   -0.3925 C   0  0  0  0  0  0  0  0  0  0  0  0
    5.1352    2.3301   -1.0577 N   0  0  0  0  0  0  0  0  0  0  0  0
    4.7435    3.5908   -0.6431 C   0  0  0  0  0  0  0  0  0  0  0  0
    4.0787    3.9132    0.3191 O   0  0  0  0  0  0  0  0  0  0  0  0
    5.3603    4.5655   -1.6577 C   0  0  0  0  0  0  0  0  0  0  0  0
    5.1756    5.8434   -1.5481 N   0  0  0  0  0  0  0  0  0  0  0  0
    5.7862    6.6562   -2.4566 N   0  0  0  0  0  0  0  0  0  0  0  0
    5.0680    7.8418   -2.7826 C   0  0  0  0  0  0  0  0  0  0  0  0
    5.7574    8.9639   -3.2625 C   0  0  0  0  0  0  0  0  0  0  0  0
    5.0658   10.1158   -3.6523 C   0  0  0  0  0  0  0  0  0  0  0  0
    3.6736   10.1471   -3.5994 C   0  0  0  0  0  0  0  0  0  0  0  0
    2.9725    9.0266   -3.1628 C   0  0  0  0  0  0  0  0  0  0  0  0
    3.6668    7.8798   -2.7680 C   0  0  0  0  0  0  0  0  0  0  0  0
    6.0979    3.7388   -2.6177 C   0  0  0  0  0  0  0  0  0  0  0  0
    6.8341    4.0686   -3.7426 C   0  0  0  0  0  0  0  0  0  0  0  0
    7.4557    3.0310   -4.4424 C   0  0  0  0  0  0  0  0  0  0  0  0
    7.3225    1.6984   -4.0175 C   0  0  0  0  0  0  0  0  0  0  0  0
    6.5512    1.3770   -2.8958 C   0  0  0  0  0  0  0  0  0  0  0  0
    5.9416    2.4110   -2.2047 C   0  0  0  0  0  0  0  0  0  0  0  0
    0.1491    0.0267   -0.1335 H   0  0  0  0  0  0  0  0  0  0  0  0
    1.0764   -0.8116   -1.3771 H   0  0  0  0  0  0  0  0  0  0  0  0
    0.6584    0.9105   -1.5724 H   0  0  0  0  0  0  0  0  0  0  0  0
    1.2137    0.5657    1.7154 H   0  0  0  0  0  0  0  0  0  0  0  0
    2.4865    1.7736    1.5596 H   0  0  0  0  0  0  0  0  0  0  0  0
    2.8967    0.0541    1.8078 H   0  0  0  0  0  0  0  0  0  0  0  0
    3.3269    0.5314   -1.9880 H   0  0  0  0  0  0  0  0  0  0  0  0
    5.4582    0.3223   -0.5606 H   0  0  0  0  0  0  0  0  0  0  0  0
    4.7059    1.3136    0.6842 H   0  0  0  0  0  0  0  0  0  0  0  0
    6.7363    6.9180   -2.1843 H   0  0  0  0  0  0  0  0  0  0  0  0
    6.8418    8.9585   -3.3246 H   0  0  0  0  0  0  0  0  0  0  0  0
    5.6144   10.9873   -3.9987 H   0  0  0  0  0  0  0  0  0  0  0  0
    3.1356   11.0414   -3.9023 H   0  0  0  0  0  0  0  0  0  0  0  0
    1.8868    9.0381   -3.1288 H   0  0  0  0  0  0  0  0  0  0  0  0
    3.1047    7.0091   -2.4383 H   0  0  0  0  0  0  0  0  0  0  0  0
    6.9287    5.0920   -4.0859 H   0  0  0  0  0  0  0  0  0  0  0  0
    8.0489    3.2561   -5.3268 H   0  0  0  0  0  0  0  0  0  0  0  0
    7.8238    0.9069   -4.5717 H   0  0  0  0  0  0  0  0  0  0  0  0
    6.4557    0.3415   -2.5892 H   0  0  0  0  0  0  0  0  0  0  0  0
  1  2  1  0  0  0  0
  1 24  1  0  0  0  0
  1 25  1  0  0  0  0
  1 26  1  0  0  0  0
  2  3  1  0  0  0  0
  2  4  2  0  0  0  0
  3 27  1  0  0  0  0
  3 28  1  0  0  0  0
  3 29  1  0  0  0  0
  4  5  1  0  0  0  0
  4 30  1  0  0  0  0
  5  6  1  0  0  0  0
  5 31  1  0  0  0  0
  5 32  1  0  0  0  0
  6  7  1  0  0  0  0
  6 23  1  0  0  0  0
  7  8  2  0  0  0  0
  7  9  1  0  0  0  0
  9 10  2  0  0  0  0
  9 18  1  0  0  0  0
 10 11  1  0  0  0  0
 11 12  1  0  0  0  0
 11 33  1  0  0  0  0
 12 13  1  0  0  0  0
 12 17  2  0  0  0  0
 13 14  2  0  0  0  0
 13 34  1  0  0  0  0
 14 15  1  0  0  0  0
 14 35  1  0  0  0  0
 15 16  2  0  0  0  0
 15 36  1  0  0  0  0
 16 17  1  0  0  0  0
 16 37  1  0  0  0  0
 17 38  1  0  0  0  0
 18 19  1  0  0  0  0
 18 23  2  0  0  0  0
 19 20  2  0  0  0  0
 19 39  1  0  0  0  0
 20 21  1  0  0  0  0
 20 40  1  0  0  0  0
 21 22  2  0  0  0  0
 21 41  1  0  0  0  0
 22 23  1  0  0  0  0
 22 42  1  0  0  0  0
M  END
>  <Line_Number>
161


> <IC50>
300000

$$$$
