CHEMBL4279161
 OpenBabel09302502333D

 44 46  0  0  0  0  0  0  0  0999 V2000
    0.9254    0.4117    0.2574 C   0  0  0  0  0  0  0  0  0  0  0  0
    2.3643   -0.0229    0.1961 C   0  0  0  0  0  0  0  0  0  0  0  0
    2.8364   -0.6545   -1.0834 C   0  0  0  0  0  0  0  0  0  0  0  0
    3.1896    0.1913    1.2450 C   0  0  0  0  0  0  0  0  0  0  0  0
    4.6466   -0.1730    1.2858 C   0  0  0  0  0  0  0  0  0  0  0  0
    5.0517   -0.4826    2.6378 N   0  0  0  0  0  0  0  0  0  0  0  0
    5.5608    0.4581    3.5283 C   0  0  0  0  0  0  0  0  0  0  0  0
    5.7184    1.6463    3.3749 O   0  0  0  0  0  0  0  0  0  0  0  0
    5.8988   -0.3443    4.8105 C   0  0  0  0  0  0  0  0  0  0  0  0
    6.2967    0.2600    5.8896 N   0  0  0  0  0  0  0  0  0  0  0  0
    6.4723   -0.4491    7.0387 N   0  0  0  0  0  0  0  0  0  0  0  0
    6.8890    0.1774    8.2038 C   0  0  0  0  0  0  0  0  0  0  0  0
    7.1298    1.3710    8.3434 O   0  0  0  0  0  0  0  0  0  0  0  0
    7.0224   -0.7343    9.3798 C   0  0  0  0  0  0  0  0  0  0  0  0
    7.3590   -2.0899    9.2227 C   0  0  0  0  0  0  0  0  0  0  0  0
    7.5144   -2.9098   10.3446 C   0  0  0  0  0  0  0  0  0  0  0  0
    7.3304   -2.3789   11.6195 C   0  0  0  0  0  0  0  0  0  0  0  0
    6.9980   -1.0324   11.7749 C   0  0  0  0  0  0  0  0  0  0  0  0
    6.7773   -0.3899   13.3553 Cl  0  0  0  0  0  0  0  0  0  0  0  0
    6.8500   -0.2051   10.6635 C   0  0  0  0  0  0  0  0  0  0  0  0
    5.6323   -1.7569    4.4823 C   0  0  0  0  0  0  0  0  0  0  0  0
    5.8407   -2.9360    5.1781 C   0  0  0  0  0  0  0  0  0  0  0  0
    5.4190   -4.1331    4.5955 C   0  0  0  0  0  0  0  0  0  0  0  0
    4.8429   -4.1427    3.3193 C   0  0  0  0  0  0  0  0  0  0  0  0
    4.6938   -2.9578    2.5960 C   0  0  0  0  0  0  0  0  0  0  0  0
    5.0933   -1.7691    3.1907 C   0  0  0  0  0  0  0  0  0  0  0  0
    0.3962    0.2038   -0.6788 H   0  0  0  0  0  0  0  0  0  0  0  0
    0.8518    1.4895    0.4377 H   0  0  0  0  0  0  0  0  0  0  0  0
    0.3975   -0.1202    1.0551 H   0  0  0  0  0  0  0  0  0  0  0  0
    2.0387   -0.7127   -1.8316 H   0  0  0  0  0  0  0  0  0  0  0  0
    3.1843   -1.6768   -0.9007 H   0  0  0  0  0  0  0  0  0  0  0  0
    3.6521   -0.0718   -1.5238 H   0  0  0  0  0  0  0  0  0  0  0  0
    2.7904    0.6908    2.1275 H   0  0  0  0  0  0  0  0  0  0  0  0
    5.2430    0.6706    0.9216 H   0  0  0  0  0  0  0  0  0  0  0  0
    4.8650   -1.0312    0.6439 H   0  0  0  0  0  0  0  0  0  0  0  0
    6.0396   -1.3513    7.1193 H   0  0  0  0  0  0  0  0  0  0  0  0
    7.5499   -2.5139    8.2430 H   0  0  0  0  0  0  0  0  0  0  0  0
    7.7918   -3.9530   10.2235 H   0  0  0  0  0  0  0  0  0  0  0  0
    7.4622   -3.0151   12.4916 H   0  0  0  0  0  0  0  0  0  0  0  0
    6.6043    0.8467   10.7892 H   0  0  0  0  0  0  0  0  0  0  0  0
    6.3295   -2.9801    6.1395 H   0  0  0  0  0  0  0  0  0  0  0  0
    5.5423   -5.0698    5.1370 H   0  0  0  0  0  0  0  0  0  0  0  0
    4.5176   -5.0856    2.8833 H   0  0  0  0  0  0  0  0  0  0  0  0
    4.2664   -2.9869    1.6002 H   0  0  0  0  0  0  0  0  0  0  0  0
  1  2  1  0  0  0  0
  1 27  1  0  0  0  0
  1 28  1  0  0  0  0
  1 29  1  0  0  0  0
  2  3  1  0  0  0  0
  2  4  2  0  0  0  0
  3 30  1  0  0  0  0
  3 31  1  0  0  0  0
  3 32  1  0  0  0  0
  4  5  1  0  0  0  0
  4 33  1  0  0  0  0
  5  6  1  0  0  0  0
  5 34  1  0  0  0  0
  5 35  1  0  0  0  0
  6  7  1  0  0  0  0
  6 26  1  0  0  0  0
  7  8  2  0  0  0  0
  7  9  1  0  0  0  0
  9 10  2  0  0  0  0
  9 21  1  0  0  0  0
 10 11  1  0  0  0  0
 11 12  1  0  0  0  0
 11 36  1  0  0  0  0
 12 13  2  0  0  0  0
 12 14  1  0  0  0  0
 14 15  1  0  0  0  0
 14 20  2  0  0  0  0
 15 16  2  0  0  0  0
 15 37  1  0  0  0  0
 16 17  1  0  0  0  0
 16 38  1  0  0  0  0
 17 18  2  0  0  0  0
 17 39  1  0  0  0  0
 18 19  1  0  0  0  0
 18 20  1  0  0  0  0
 20 40  1  0  0  0  0
 21 22  1  0  0  0  0
 21 26  2  0  0  0  0
 22 23  2  0  0  0  0
 22 41  1  0  0  0  0
 23 24  1  0  0  0  0
 23 42  1  0  0  0  0
 24 25  2  0  0  0  0
 24 43  1  0  0  0  0
 25 26  1  0  0  0  0
 25 44  1  0  0  0  0
M  END
>  <Line_Number>
162


> <IC50>
38100

$$$$
