CHEMBL4283043
 OpenBabel09302502333D

 47 49  0  0  0  0  0  0  0  0999 V2000
    7.5669    0.9687    1.2838 C   0  0  0  0  0  0  0  0  0  0  0  0
    6.3849    0.9479    0.3545 C   0  0  0  0  0  0  0  0  0  0  0  0
    5.7511    2.2721    0.0240 C   0  0  0  0  0  0  0  0  0  0  0  0
    5.9380   -0.2185   -0.1524 C   0  0  0  0  0  0  0  0  0  0  0  0
    4.7755   -0.3830   -1.0879 C   0  0  0  0  0  0  0  0  0  0  0  0
    5.2180   -1.0224   -2.3011 N   0  0  0  0  0  0  0  0  0  0  0  0
    5.6226   -0.3258   -3.4278 C   0  0  0  0  0  0  0  0  0  0  0  0
    5.7422    0.8701   -3.5881 O   0  0  0  0  0  0  0  0  0  0  0  0
    5.8834   -1.4014   -4.4994 C   0  0  0  0  0  0  0  0  0  0  0  0
    6.3143   -1.0893   -5.6834 N   0  0  0  0  0  0  0  0  0  0  0  0
    6.6460   -2.0902   -6.5461 N   0  0  0  0  0  0  0  0  0  0  0  0
    6.7176   -1.8488   -7.9124 C   0  0  0  0  0  0  0  0  0  0  0  0
    6.4897   -0.7781   -8.4643 O   0  0  0  0  0  0  0  0  0  0  0  0
    7.0855   -3.0327   -8.7488 C   0  0  0  0  0  0  0  0  0  0  0  0
    6.8185   -4.3432   -8.3324 C   0  0  0  0  0  0  0  0  0  0  0  0
    7.1398   -5.4310   -9.1477 C   0  0  0  0  0  0  0  0  0  0  0  0
    7.7213   -5.2286  -10.4053 C   0  0  0  0  0  0  0  0  0  0  0  0
    8.0598   -6.4001  -11.2973 C   0  0  0  0  0  0  0  0  0  0  0  0
    7.7697   -7.6073  -10.7339 F   0  0  0  0  0  0  0  0  0  0  0  0
    7.3862   -6.3698  -12.4791 F   0  0  0  0  0  0  0  0  0  0  0  0
    9.3822   -6.4475  -11.6152 F   0  0  0  0  0  0  0  0  0  0  0  0
    7.9691   -3.9141  -10.8321 C   0  0  0  0  0  0  0  0  0  0  0  0
    7.6508   -2.8247  -10.0120 C   0  0  0  0  0  0  0  0  0  0  0  0
    5.5216   -2.6824   -3.8736 C   0  0  0  0  0  0  0  0  0  0  0  0
    5.4150   -3.9657   -4.3814 C   0  0  0  0  0  0  0  0  0  0  0  0
    5.0154   -4.9912   -3.5214 C   0  0  0  0  0  0  0  0  0  0  0  0
    4.7085   -4.7172   -2.1816 C   0  0  0  0  0  0  0  0  0  0  0  0
    4.7702   -3.4104   -1.6892 C   0  0  0  0  0  0  0  0  0  0  0  0
    5.1648   -2.4008   -2.5540 C   0  0  0  0  0  0  0  0  0  0  0  0
    7.7930    1.9803    1.6353 H   0  0  0  0  0  0  0  0  0  0  0  0
    8.4603    0.5903    0.7766 H   0  0  0  0  0  0  0  0  0  0  0  0
    7.3717    0.3532    2.1684 H   0  0  0  0  0  0  0  0  0  0  0  0
    6.2372    3.1018    0.5460 H   0  0  0  0  0  0  0  0  0  0  0  0
    4.6972    2.2778    0.3221 H   0  0  0  0  0  0  0  0  0  0  0  0
    5.8221    2.4763   -1.0492 H   0  0  0  0  0  0  0  0  0  0  0  0
    6.4456   -1.1376    0.1326 H   0  0  0  0  0  0  0  0  0  0  0  0
    4.3207    0.5757   -1.3553 H   0  0  0  0  0  0  0  0  0  0  0  0
    3.9922   -0.9799   -0.6090 H   0  0  0  0  0  0  0  0  0  0  0  0
    7.1133   -2.8992   -6.1580 H   0  0  0  0  0  0  0  0  0  0  0  0
    6.3213   -4.5480   -7.3939 H   0  0  0  0  0  0  0  0  0  0  0  0
    6.9160   -6.4394   -8.8007 H   0  0  0  0  0  0  0  0  0  0  0  0
    8.4041   -3.7309  -11.8144 H   0  0  0  0  0  0  0  0  0  0  0  0
    7.8361   -1.8109  -10.3657 H   0  0  0  0  0  0  0  0  0  0  0  0
    5.5867   -4.1915   -5.4211 H   0  0  0  0  0  0  0  0  0  0  0  0
    4.9247   -6.0089   -3.8965 H   0  0  0  0  0  0  0  0  0  0  0  0
    4.3963   -5.5282   -1.5261 H   0  0  0  0  0  0  0  0  0  0  0  0
    4.5027   -3.2141   -0.6570 H   0  0  0  0  0  0  0  0  0  0  0  0
  1  2  1  0  0  0  0
  1 30  1  0  0  0  0
  1 31  1  0  0  0  0
  1 32  1  0  0  0  0
  2  3  1  0  0  0  0
  2  4  2  0  0  0  0
  3 33  1  0  0  0  0
  3 34  1  0  0  0  0
  3 35  1  0  0  0  0
  4  5  1  0  0  0  0
  4 36  1  0  0  0  0
  5  6  1  0  0  0  0
  5 37  1  0  0  0  0
  5 38  1  0  0  0  0
  6  7  1  0  0  0  0
  6 29  1  0  0  0  0
  7  8  2  0  0  0  0
  7  9  1  0  0  0  0
  9 10  2  0  0  0  0
  9 24  1  0  0  0  0
 10 11  1  0  0  0  0
 11 12  1  0  0  0  0
 11 39  1  0  0  0  0
 12 13  2  0  0  0  0
 12 14  1  0  0  0  0
 14 15  1  0  0  0  0
 14 23  2  0  0  0  0
 15 16  2  0  0  0  0
 15 40  1  0  0  0  0
 16 17  1  0  0  0  0
 16 41  1  0  0  0  0
 17 18  1  0  0  0  0
 17 22  2  0  0  0  0
 18 19  1  0  0  0  0
 18 20  1  0  0  0  0
 18 21  1  0  0  0  0
 22 23  1  0  0  0  0
 22 42  1  0  0  0  0
 23 43  1  0  0  0  0
 24 25  1  0  0  0  0
 24 29  2  0  0  0  0
 25 26  2  0  0  0  0
 25 44  1  0  0  0  0
 26 27  1  0  0  0  0
 26 45  1  0  0  0  0
 27 28  2  0  0  0  0
 27 46  1  0  0  0  0
 28 29  1  0  0  0  0
 28 47  1  0  0  0  0
M  END
>  <Line_Number>
163


> <IC50>
44100

$$$$
