
 OpenBabel09302502332D

 27 29  0  0  0  0  0  0  0  0999 V2000
   -5.2437   -3.0933    0.0000 C   0  0  0  0  0  0  0  0  0  0  0  0
   -4.3776   -2.5933    0.0000 O   0  0  0  0  0  0  0  0  0  0  0  0
   -4.3776   -1.5933    0.0000 C   0  0  0  0  0  0  0  0  0  0  0  0
   -5.2437   -1.0933    0.0000 C   0  0  0  0  0  0  0  0  0  0  0  0
   -5.2437   -0.0933    0.0000 C   0  0  0  0  0  0  0  0  0  0  0  0
   -4.3776    0.4067    0.0000 C   0  0  0  0  0  0  0  0  0  0  0  0
   -3.5116   -0.0933    0.0000 C   0  0  0  0  0  0  0  0  0  0  0  0
   -3.5116   -1.0933    0.0000 C   0  0  0  0  0  0  0  0  0  0  0  0
   -2.6456   -1.5933    0.0000 C   0  0  0  0  0  0  0  0  0  0  0  0
   -2.6456   -2.5933    0.0000 O   0  0  0  0  0  0  0  0  0  0  0  0
   -1.7796   -1.0933    0.0000 N   0  0  0  0  0  0  0  0  0  0  0  0
   -1.7796   -0.0933    0.0000 N   0  0  0  0  0  0  0  0  0  0  0  0
   -0.9135    0.4067    0.0000 C   0  0  0  0  0  0  0  0  0  0  0  0
   -0.8090    1.4013    0.0000 C   0  0  0  0  0  0  0  0  0  0  0  0
   -1.5522    2.0704    0.0000 O   0  0  0  0  0  0  0  0  0  0  0  0
    0.1691    1.6092    0.0000 N   0  0  0  0  0  0  0  0  0  0  0  0
    0.5759    2.5227    0.0000 C   0  0  0  0  0  0  0  0  0  0  0  0
    1.5704    2.6272    0.0000 C   0  0  0  0  0  0  0  0  0  0  0  0
    1.9771    3.5408    0.0000 C   0  0  0  0  0  0  0  0  0  0  0  0
    1.3893    4.3498    0.0000 C   0  0  0  0  0  0  0  0  0  0  0  0
    2.9716    3.6453    0.0000 C   0  0  0  0  0  0  0  0  0  0  0  0
    0.6691    0.7431    0.0000 C   0  0  0  0  0  0  0  0  0  0  0  0
    1.6473    0.5352    0.0000 C   0  0  0  0  0  0  0  0  0  0  0  0
    1.9563   -0.4158    0.0000 C   0  0  0  0  0  0  0  0  0  0  0  0
    1.2872   -1.1590    0.0000 C   0  0  0  0  0  0  0  0  0  0  0  0
    0.3090   -0.9511    0.0000 C   0  0  0  0  0  0  0  0  0  0  0  0
    0.0000    0.0000    0.0000 C   0  0  0  0  0  0  0  0  0  0  0  0
  1  2  1  0  0  0  0
  2  3  1  0  0  0  0
  3  8  2  0  0  0  0
  3  4  1  0  0  0  0
  4  5  2  0  0  0  0
  5  6  1  0  0  0  0
  6  7  2  0  0  0  0
  7  8  1  0  0  0  0
  8  9  1  0  0  0  0
  9 10  2  0  0  0  0
  9 11  1  0  0  0  0
 11 12  1  0  0  0  0
 12 13  2  0  0  0  0
 13 27  1  0  0  0  0
 13 14  1  0  0  0  0
 14 15  2  0  0  0  0
 14 16  1  0  0  0  0
 16 17  1  0  0  0  0
 16 22  1  0  0  0  0
 17 18  1  0  0  0  0
 18 19  2  0  0  0  0
 19 20  1  0  0  0  0
 19 21  1  0  0  0  0
 22 27  2  0  0  0  0
 22 23  1  0  0  0  0
 23 24  2  0  0  0  0
 24 25  1  0  0  0  0
 25 26  2  0  0  0  0
 26 27  1  0  0  0  0
M  END

> <IC50>
11700

$$$$
