CHEMBL4289384
 OpenBabel09302502333D

 47 49  0  0  0  0  0  0  0  0999 V2000
    0.8549    0.4638    0.5485 C   0  0  0  0  0  0  0  0  0  0  0  0
    2.3213    0.7858    0.4621 C   0  0  0  0  0  0  0  0  0  0  0  0
    2.7269    1.8756   -0.4919 C   0  0  0  0  0  0  0  0  0  0  0  0
    3.2186    0.1302    1.2279 C   0  0  0  0  0  0  0  0  0  0  0  0
    4.7015    0.3783    1.2445 C   0  0  0  0  0  0  0  0  0  0  0  0
    5.1160    0.7439    2.5739 N   0  0  0  0  0  0  0  0  0  0  0  0
    5.1474    2.0477    3.0309 C   0  0  0  0  0  0  0  0  0  0  0  0
    4.8572    3.0784    2.4601 O   0  0  0  0  0  0  0  0  0  0  0  0
    5.6517    1.9581    4.4823 C   0  0  0  0  0  0  0  0  0  0  0  0
    5.6318    3.0025    5.2555 N   0  0  0  0  0  0  0  0  0  0  0  0
    6.0183    2.8577    6.5455 N   0  0  0  0  0  0  0  0  0  0  0  0
    5.5426    3.6177    7.5975 C   0  0  0  0  0  0  0  0  0  0  0  0
    6.0823    3.5116    8.7004 O   0  0  0  0  0  0  0  0  0  0  0  0
    4.3736    4.5284    7.4315 C   0  0  0  0  0  0  0  0  0  0  0  0
    3.3756    4.3349    6.4720 C   0  0  0  0  0  0  0  0  0  0  0  0
    2.2920    5.2110    6.3839 C   0  0  0  0  0  0  0  0  0  0  0  0
    2.1681    6.2799    7.2747 C   0  0  0  0  0  0  0  0  0  0  0  0
    0.9795    7.1906    7.2057 C   0  0  0  0  0  0  0  0  0  0  0  0
    3.1570    6.4731    8.2466 C   0  0  0  0  0  0  0  0  0  0  0  0
    4.2497    5.6028    8.3242 C   0  0  0  0  0  0  0  0  0  0  0  0
    5.9691    0.5423    4.7149 C   0  0  0  0  0  0  0  0  0  0  0  0
    6.4962   -0.1312    5.8045 C   0  0  0  0  0  0  0  0  0  0  0  0
    6.6486   -1.5173    5.7093 C   0  0  0  0  0  0  0  0  0  0  0  0
    6.2628   -2.2053    4.5476 C   0  0  0  0  0  0  0  0  0  0  0  0
    5.7297   -1.5205    3.4539 C   0  0  0  0  0  0  0  0  0  0  0  0
    5.5970   -0.1379    3.5508 C   0  0  0  0  0  0  0  0  0  0  0  0
    0.2596    1.0926   -0.1221 H   0  0  0  0  0  0  0  0  0  0  0  0
    0.4839    0.6322    1.5649 H   0  0  0  0  0  0  0  0  0  0  0  0
    0.6683   -0.5783    0.2687 H   0  0  0  0  0  0  0  0  0  0  0  0
    1.8691    2.3053   -1.0170 H   0  0  0  0  0  0  0  0  0  0  0  0
    3.4092    1.4815   -1.2529 H   0  0  0  0  0  0  0  0  0  0  0  0
    3.2208    2.6918    0.0450 H   0  0  0  0  0  0  0  0  0  0  0  0
    2.8601   -0.6536    1.8948 H   0  0  0  0  0  0  0  0  0  0  0  0
    4.9864    1.1906    0.5691 H   0  0  0  0  0  0  0  0  0  0  0  0
    5.2374   -0.5144    0.9079 H   0  0  0  0  0  0  0  0  0  0  0  0
    6.9191    2.4251    6.7228 H   0  0  0  0  0  0  0  0  0  0  0  0
    3.4085    3.5001    5.7821 H   0  0  0  0  0  0  0  0  0  0  0  0
    1.5414    5.0401    5.6153 H   0  0  0  0  0  0  0  0  0  0  0  0
    0.3082    6.9052    6.3881 H   0  0  0  0  0  0  0  0  0  0  0  0
    1.2975    8.2227    7.0340 H   0  0  0  0  0  0  0  0  0  0  0  0
    0.4103    7.1329    8.1387 H   0  0  0  0  0  0  0  0  0  0  0  0
    3.0794    7.2960    8.9535 H   0  0  0  0  0  0  0  0  0  0  0  0
    5.0064    5.7658    9.0910 H   0  0  0  0  0  0  0  0  0  0  0  0
    6.7880    0.3678    6.7186 H   0  0  0  0  0  0  0  0  0  0  0  0
    7.0637   -2.0726    6.5484 H   0  0  0  0  0  0  0  0  0  0  0  0
    6.3795   -3.2865    4.5018 H   0  0  0  0  0  0  0  0  0  0  0  0
    5.4327   -2.0679    2.5684 H   0  0  0  0  0  0  0  0  0  0  0  0
  1  2  1  0  0  0  0
  1 27  1  0  0  0  0
  1 28  1  0  0  0  0
  1 29  1  0  0  0  0
  2  3  1  0  0  0  0
  2  4  2  0  0  0  0
  3 30  1  0  0  0  0
  3 31  1  0  0  0  0
  3 32  1  0  0  0  0
  4  5  1  0  0  0  0
  4 33  1  0  0  0  0
  5  6  1  0  0  0  0
  5 34  1  0  0  0  0
  5 35  1  0  0  0  0
  6  7  1  0  0  0  0
  6 26  1  0  0  0  0
  7  8  2  0  0  0  0
  7  9  1  0  0  0  0
  9 10  2  0  0  0  0
  9 21  1  0  0  0  0
 10 11  1  0  0  0  0
 11 12  1  0  0  0  0
 11 36  1  0  0  0  0
 12 13  2  0  0  0  0
 12 14  1  0  0  0  0
 14 15  1  0  0  0  0
 14 20  2  0  0  0  0
 15 16  2  0  0  0  0
 15 37  1  0  0  0  0
 16 17  1  0  0  0  0
 16 38  1  0  0  0  0
 17 18  1  0  0  0  0
 17 19  2  0  0  0  0
 18 39  1  0  0  0  0
 18 40  1  0  0  0  0
 18 41  1  0  0  0  0
 19 20  1  0  0  0  0
 19 42  1  0  0  0  0
 20 43  1  0  0  0  0
 21 22  1  0  0  0  0
 21 26  2  0  0  0  0
 22 23  2  0  0  0  0
 22 44  1  0  0  0  0
 23 24  1  0  0  0  0
 23 45  1  0  0  0  0
 24 25  2  0  0  0  0
 24 46  1  0  0  0  0
 25 26  1  0  0  0  0
 25 47  1  0  0  0  0
M  END
>  <Line_Number>
165


> <IC50>
29900

$$$$
