
 OpenBabel09302502332D

 29 31  0  0  0  0  0  0  0  0999 V2000
    0.8660   -2.5000    0.0000 C   0  0  0  0  0  0  0  0  0  0  0  0
    0.8660   -1.5000    0.0000 O   0  0  0  0  0  0  0  0  0  0  0  0
   -0.0000   -1.0000    0.0000 C   0  0  0  0  0  0  0  0  0  0  0  0
   -0.8660   -1.5000    0.0000 C   0  0  0  0  0  0  0  0  0  0  0  0
   -1.7321   -1.0000    0.0000 C   0  0  0  0  0  0  0  0  0  0  0  0
   -1.7321    0.0000    0.0000 C   0  0  0  0  0  0  0  0  0  0  0  0
   -2.5981    0.5000    0.0000 C   0  0  0  0  0  0  0  0  0  0  0  0
   -2.5981    1.5000    0.0000 O   0  0  0  0  0  0  0  0  0  0  0  0
   -3.4641    0.0000    0.0000 N   0  0  0  0  0  0  0  0  0  0  0  0
   -3.4641   -1.0000    0.0000 N   0  0  0  0  0  0  0  0  0  0  0  0
   -4.3301   -1.5000    0.0000 C   0  0  0  0  0  0  0  0  0  0  0  0
   -4.4347   -2.4945    0.0000 C   0  0  0  0  0  0  0  0  0  0  0  0
   -3.6915   -3.1637    0.0000 O   0  0  0  0  0  0  0  0  0  0  0  0
   -5.4128   -2.7024    0.0000 N   0  0  0  0  0  0  0  0  0  0  0  0
   -5.8195   -3.6160    0.0000 C   0  0  0  0  0  0  0  0  0  0  0  0
   -6.8141   -3.7205    0.0000 C   0  0  0  0  0  0  0  0  0  0  0  0
   -7.2208   -4.6341    0.0000 C   0  0  0  0  0  0  0  0  0  0  0  0
   -6.6330   -5.4431    0.0000 C   0  0  0  0  0  0  0  0  0  0  0  0
   -8.2153   -4.7386    0.0000 C   0  0  0  0  0  0  0  0  0  0  0  0
   -5.9128   -1.8364    0.0000 C   0  0  0  0  0  0  0  0  0  0  0  0
   -6.8910   -1.6285    0.0000 C   0  0  0  0  0  0  0  0  0  0  0  0
   -7.2000   -0.6774    0.0000 C   0  0  0  0  0  0  0  0  0  0  0  0
   -6.5308    0.0657    0.0000 C   0  0  0  0  0  0  0  0  0  0  0  0
   -5.5527   -0.1422    0.0000 C   0  0  0  0  0  0  0  0  0  0  0  0
   -5.2437   -1.0933    0.0000 C   0  0  0  0  0  0  0  0  0  0  0  0
   -0.8660    0.5000    0.0000 C   0  0  0  0  0  0  0  0  0  0  0  0
    0.0000   -0.0000    0.0000 C   0  0  0  0  0  0  0  0  0  0  0  0
    0.8660    0.5000    0.0000 O   0  0  0  0  0  0  0  0  0  0  0  0
    1.7321   -0.0000    0.0000 C   0  0  0  0  0  0  0  0  0  0  0  0
  1  2  1  0  0  0  0
  2  3  1  0  0  0  0
  3 27  2  0  0  0  0
  3  4  1  0  0  0  0
  4  5  2  0  0  0  0
  5  6  1  0  0  0  0
  6  7  1  0  0  0  0
  6 26  2  0  0  0  0
  7  8  2  0  0  0  0
  7  9  1  0  0  0  0
  9 10  1  0  0  0  0
 10 11  2  0  0  0  0
 11 25  1  0  0  0  0
 11 12  1  0  0  0  0
 12 13  2  0  0  0  0
 12 14  1  0  0  0  0
 14 15  1  0  0  0  0
 14 20  1  0  0  0  0
 15 16  1  0  0  0  0
 16 17  2  0  0  0  0
 17 18  1  0  0  0  0
 17 19  1  0  0  0  0
 20 25  2  0  0  0  0
 20 21  1  0  0  0  0
 21 22  2  0  0  0  0
 22 23  1  0  0  0  0
 23 24  2  0  0  0  0
 24 25  1  0  0  0  0
 26 27  1  0  0  0  0
 27 28  1  0  0  0  0
 28 29  1  0  0  0  0
M  END

> <IC50>
710

$$$$
