136118944.0
 OpenBabel09302502333D

 26 28  0  0  0  0  0  0  0  0999 V2000
    2.2140   -0.0155   -0.0153 O   0  0  0  0  0  0  0  0  0  0  0  0
    0.8522   -0.0186    0.0018 C   0  0  0  0  0  0  0  0  0  0  0  0
    0.1319   -1.0759    0.5466 C   0  0  0  0  0  0  0  0  0  0  0  0
   -1.2658   -1.0298    0.5399 C   0  0  0  0  0  0  0  0  0  0  0  0
   -1.9444    0.0616   -0.0208 C   0  0  0  0  0  0  0  0  0  0  0  0
   -3.4066    0.0808   -0.0361 C   0  0  0  0  0  0  0  0  0  0  0  0
   -4.2132   -0.4816    0.8462 N   0  0  0  0  0  0  0  0  0  0  0  0
   -5.4903   -0.1908    0.4339 C   0  0  0  0  0  0  0  0  0  0  0  0
   -6.7222   -0.5136    1.0210 C   0  0  0  0  0  0  0  0  0  0  0  0
   -7.9012   -0.1001    0.3837 C   0  0  0  0  0  0  0  0  0  0  0  0
   -7.8458    0.6147   -0.8152 C   0  0  0  0  0  0  0  0  0  0  0  0
   -9.4589    1.1436   -1.6550 Br  0  0  0  0  0  0  0  0  0  0  0  0
   -6.6284    0.9522   -1.4167 C   0  0  0  0  0  0  0  0  0  0  0  0
   -5.4743    0.5328   -0.7515 C   0  0  0  0  0  0  0  0  0  0  0  0
   -4.1427    0.6868   -1.0296 N   0  0  0  0  0  0  0  0  0  0  0  0
   -1.1955    1.1217   -0.5544 C   0  0  0  0  0  0  0  0  0  0  0  0
    0.2001    1.0804   -0.5429 C   0  0  0  0  0  0  0  0  0  0  0  0
    2.5300   -0.8291    0.4114 H   0  0  0  0  0  0  0  0  0  0  0  0
    0.6318   -1.9369    0.9785 H   0  0  0  0  0  0  0  0  0  0  0  0
   -1.8313   -1.8556    0.9699 H   0  0  0  0  0  0  0  0  0  0  0  0
   -6.7522   -1.0702    1.9515 H   0  0  0  0  0  0  0  0  0  0  0  0
   -8.8589   -0.3455    0.8358 H   0  0  0  0  0  0  0  0  0  0  0  0
   -6.5815    1.5087   -2.3458 H   0  0  0  0  0  0  0  0  0  0  0  0
   -3.7573    1.1539   -1.8360 H   0  0  0  0  0  0  0  0  0  0  0  0
   -1.6822    2.0030   -0.9627 H   0  0  0  0  0  0  0  0  0  0  0  0
    0.7757    1.9070   -0.9503 H   0  0  0  0  0  0  0  0  0  0  0  0
  1  2  1  0  0  0  0
  1 18  1  0  0  0  0
  2  3  1  0  0  0  0
  2 17  2  0  0  0  0
  3  4  2  0  0  0  0
  3 19  1  0  0  0  0
  4  5  1  0  0  0  0
  4 20  1  0  0  0  0
  5  6  1  0  0  0  0
  5 16  2  0  0  0  0
  6  7  2  0  0  0  0
  6 15  1  0  0  0  0
  7  8  1  0  0  0  0
  8  9  1  0  0  0  0
  8 14  2  0  0  0  0
  9 10  2  0  0  0  0
  9 21  1  0  0  0  0
 10 11  1  0  0  0  0
 10 22  1  0  0  0  0
 11 12  1  0  0  0  0
 11 13  2  0  0  0  0
 13 14  1  0  0  0  0
 13 23  1  0  0  0  0
 14 15  1  0  0  0  0
 15 24  1  0  0  0  0
 16 17  1  0  0  0  0
 16 25  1  0  0  0  0
 17 26  1  0  0  0  0
M  END
>  <Line_Number>
167


> <IC50>
8300

$$$$
