163408943.0
 OpenBabel09302502333D

 45 48  0  0  0  0  0  0  0  0999 V2000
    1.7238    1.6545   -1.2727 O   0  0  0  0  0  0  0  0  0  0  0  0
    2.6793    0.9700   -0.9129 C   0  0  0  0  0  0  0  0  0  0  0  0
    3.1166   -0.1796   -1.5589 N   0  0  0  0  0  0  0  0  0  0  0  0
    2.4549   -0.6094   -2.6702 N   0  0  0  0  0  0  0  0  0  0  0  0
    2.8975   -1.6896   -3.2339 C   0  0  0  0  0  0  0  0  0  0  0  0
    2.2335   -2.2323   -4.4440 C   0  0  0  0  0  0  0  0  0  0  0  0
    1.1115   -1.5925   -4.9978 C   0  0  0  0  0  0  0  0  0  0  0  0
    0.5272   -0.4805   -4.4541 O   0  0  0  0  0  0  0  0  0  0  0  0
    0.5047   -2.0832   -6.1531 C   0  0  0  0  0  0  0  0  0  0  0  0
    1.0037   -3.2308   -6.7663 C   0  0  0  0  0  0  0  0  0  0  0  0
    2.1137   -3.8834   -6.2146 C   0  0  0  0  0  0  0  0  0  0  0  0
    2.6392   -5.0970   -6.8578 C   0  0  0  0  0  0  0  0  0  0  0  0
    2.1600   -5.5584   -7.8842 O   0  0  0  0  0  0  0  0  0  0  0  0
    3.7856   -5.7426   -6.2031 C   0  0  0  0  0  0  0  0  0  0  0  0
    4.2825   -5.1899   -5.0875 C   0  0  0  0  0  0  0  0  0  0  0  0
    5.4167   -5.8070   -4.3934 C   0  0  0  0  0  0  0  0  0  0  0  0
    6.7310   -5.4525   -4.7299 C   0  0  0  0  0  0  0  0  0  0  0  0
    7.8088   -6.0269   -4.0516 C   0  0  0  0  0  0  0  0  0  0  0  0
    7.5707   -6.9555   -3.0446 C   0  0  0  0  0  0  0  0  0  0  0  0
    8.6044   -7.4952   -2.3867 F   0  0  0  0  0  0  0  0  0  0  0  0
    6.2743   -7.3278   -2.7073 C   0  0  0  0  0  0  0  0  0  0  0  0
    5.1946   -6.7557   -3.3841 C   0  0  0  0  0  0  0  0  0  0  0  0
    3.8098   -4.0359   -4.4911 O   0  0  0  0  0  0  0  0  0  0  0  0
    2.7289   -3.3956   -5.0554 C   0  0  0  0  0  0  0  0  0  0  0  0
    3.4244    1.3418    0.3234 C   0  0  0  0  0  0  0  0  0  0  0  0
    2.7233    1.9725    1.3595 C   0  0  0  0  0  0  0  0  0  0  0  0
    3.3762    2.3142    2.5463 C   0  0  0  0  0  0  0  0  0  0  0  0
    4.7350    2.0401    2.6976 C   0  0  0  0  0  0  0  0  0  0  0  0
    5.4462    1.4397    1.6578 C   0  0  0  0  0  0  0  0  0  0  0  0
    4.7965    1.0932    0.4694 C   0  0  0  0  0  0  0  0  0  0  0  0
    3.8292   -0.7700   -1.1447 H   0  0  0  0  0  0  0  0  0  0  0  0
    3.7757   -2.2285   -2.8372 H   0  0  0  0  0  0  0  0  0  0  0  0
    0.9756   -0.2641   -3.6022 H   0  0  0  0  0  0  0  0  0  0  0  0
   -0.3606   -1.5729   -6.5700 H   0  0  0  0  0  0  0  0  0  0  0  0
    0.5251   -3.6162   -7.6640 H   0  0  0  0  0  0  0  0  0  0  0  0
    4.1738   -6.6458   -6.6560 H   0  0  0  0  0  0  0  0  0  0  0  0
    6.9237   -4.7260   -5.5164 H   0  0  0  0  0  0  0  0  0  0  0  0
    8.8302   -5.7539   -4.2979 H   0  0  0  0  0  0  0  0  0  0  0  0
    6.1136   -8.0566   -1.9192 H   0  0  0  0  0  0  0  0  0  0  0  0
    4.1824   -7.0509   -3.1152 H   0  0  0  0  0  0  0  0  0  0  0  0
    1.6643    2.1985    1.2448 H   0  0  0  0  0  0  0  0  0  0  0  0
    2.8248    2.7975    3.3500 H   0  0  0  0  0  0  0  0  0  0  0  0
    5.2417    2.3067    3.6206 H   0  0  0  0  0  0  0  0  0  0  0  0
    6.5118    1.2531    1.7722 H   0  0  0  0  0  0  0  0  0  0  0  0
    5.3802    0.6650   -0.3393 H   0  0  0  0  0  0  0  0  0  0  0  0
  1  2  2  0  0  0  0
  2  3  1  0  0  0  0
  2 25  1  0  0  0  0
  3  4  1  0  0  0  0
  3 31  1  0  0  0  0
  4  5  2  0  0  0  0
  5  6  1  0  0  0  0
  5 32  1  0  0  0  0
  6  7  1  0  0  0  0
  6 24  2  0  0  0  0
  7  8  1  0  0  0  0
  7  9  2  0  0  0  0
  8 33  1  0  0  0  0
  9 10  1  0  0  0  0
  9 34  1  0  0  0  0
 10 11  2  0  0  0  0
 10 35  1  0  0  0  0
 11 12  1  0  0  0  0
 11 24  1  0  0  0  0
 12 13  2  0  0  0  0
 12 14  1  0  0  0  0
 14 15  2  0  0  0  0
 14 36  1  0  0  0  0
 15 16  1  0  0  0  0
 15 23  1  0  0  0  0
 16 17  1  0  0  0  0
 16 22  2  0  0  0  0
 17 18  2  0  0  0  0
 17 37  1  0  0  0  0
 18 19  1  0  0  0  0
 18 38  1  0  0  0  0
 19 20  1  0  0  0  0
 19 21  2  0  0  0  0
 21 22  1  0  0  0  0
 21 39  1  0  0  0  0
 22 40  1  0  0  0  0
 23 24  1  0  0  0  0
 25 26  1  0  0  0  0
 25 30  2  0  0  0  0
 26 27  2  0  0  0  0
 26 41  1  0  0  0  0
 27 28  1  0  0  0  0
 27 42  1  0  0  0  0
 28 29  2  0  0  0  0
 28 43  1  0  0  0  0
 29 30  1  0  0  0  0
 29 44  1  0  0  0  0
 30 45  1  0  0  0  0
M  END
>  <Line_Number>
168


> <IC50>
1207

$$$$
