155512762.0
 OpenBabel09302502333D

 43 45  0  0  0  0  0  0  0  0999 V2000
    1.6152    0.6527    0.5588 O   0  0  0  0  0  0  0  0  0  0  0  0
    2.0316   -0.3362   -0.0643 N   0  3  0  0  0  0  0  0  0  0  0  0
    1.6875   -0.6394   -1.2136 O   0  5  0  0  0  0  0  0  0  0  0  0
    2.9960   -1.2151    0.6170 C   0  0  0  0  0  0  0  0  0  0  0  0
    3.4210   -0.9062    1.9171 C   0  0  0  0  0  0  0  0  0  0  0  0
    4.3487   -1.7398    2.5588 C   0  0  0  0  0  0  0  0  0  0  0  0
    4.8335   -2.8786    1.9012 C   0  0  0  0  0  0  0  0  0  0  0  0
    6.0627   -3.9169    2.7037 S   0  0  0  0  0  0  0  0  0  0  0  0
    6.8608   -4.5220    1.6604 O   0  0  0  0  0  0  0  0  0  0  0  0
    6.6374   -3.1246    3.7671 O   0  0  0  0  0  0  0  0  0  0  0  0
    5.0261   -5.0942    3.4172 N   0  0  0  0  0  0  0  0  0  0  0  0
    5.6443   -6.1921    4.1590 N   0  0  0  0  0  0  0  0  0  0  0  0
    4.9886   -7.3187    4.2668 C   0  0  0  0  0  0  0  0  0  0  0  0
    3.6780   -7.6428    3.5880 C   0  0  0  0  0  0  0  0  0  0  0  0
    3.4851   -8.9244    3.0403 C   0  0  0  0  0  0  0  0  0  0  0  0
    2.2728   -9.2720    2.4438 C   0  0  0  0  0  0  0  0  0  0  0  0
    1.2598   -8.3252    2.3270 C   0  0  0  0  0  0  0  0  0  0  0  0
    1.4441   -7.0444    2.8389 C   0  0  0  0  0  0  0  0  0  0  0  0
    2.6330   -6.7165    3.4962 C   0  0  0  0  0  0  0  0  0  0  0  0
    5.6225   -8.4133    5.1011 C   0  0  0  0  0  0  0  0  0  0  0  0
    4.8299   -9.3432    5.7987 C   0  0  0  0  0  0  0  0  0  0  0  0
    5.4141  -10.4351    6.4496 C   0  0  0  0  0  0  0  0  0  0  0  0
    6.7960  -10.5709    6.4450 C   0  0  0  0  0  0  0  0  0  0  0  0
    7.4048  -11.6352    7.0410 O   0  0  0  0  0  0  0  0  0  0  0  0
    7.6008   -9.6215    5.8216 C   0  0  0  0  0  0  0  0  0  0  0  0
    7.0158   -8.5401    5.1508 C   0  0  0  0  0  0  0  0  0  0  0  0
    4.4126   -3.1849    0.6036 C   0  0  0  0  0  0  0  0  0  0  0  0
    3.4872   -2.3515   -0.0431 C   0  0  0  0  0  0  0  0  0  0  0  0
    3.0545   -0.0217    2.4350 H   0  0  0  0  0  0  0  0  0  0  0  0
    4.6923   -1.4807    3.5586 H   0  0  0  0  0  0  0  0  0  0  0  0
    4.4195   -4.5615    4.0453 H   0  0  0  0  0  0  0  0  0  0  0  0
    4.2720   -9.6752    3.0821 H   0  0  0  0  0  0  0  0  0  0  0  0
    2.1236  -10.2792    2.0634 H   0  0  0  0  0  0  0  0  0  0  0  0
    0.3245   -8.5861    1.8374 H   0  0  0  0  0  0  0  0  0  0  0  0
    0.6595   -6.3000    2.7360 H   0  0  0  0  0  0  0  0  0  0  0  0
    2.7104   -5.7314    3.9366 H   0  0  0  0  0  0  0  0  0  0  0  0
    3.7477   -9.2476    5.8234 H   0  0  0  0  0  0  0  0  0  0  0  0
    4.7769  -11.1663    6.9377 H   0  0  0  0  0  0  0  0  0  0  0  0
    6.7248  -12.2185    7.4167 H   0  0  0  0  0  0  0  0  0  0  0  0
    8.6819   -9.7341    5.8426 H   0  0  0  0  0  0  0  0  0  0  0  0
    7.6571   -7.8195    4.6475 H   0  0  0  0  0  0  0  0  0  0  0  0
    4.8037   -4.0593    0.0847 H   0  0  0  0  0  0  0  0  0  0  0  0
    3.1717   -2.5960   -1.0563 H   0  0  0  0  0  0  0  0  0  0  0  0
  1  2  2  0  0  0  0
  2  3  1  0  0  0  0
  2  4  1  0  0  0  0
  4  5  1  0  0  0  0
  4 28  2  0  0  0  0
  5  6  2  0  0  0  0
  5 29  1  0  0  0  0
  6  7  1  0  0  0  0
  6 30  1  0  0  0  0
  7  8  1  0  0  0  0
  7 27  2  0  0  0  0
  8  9  2  0  0  0  0
  8 10  2  0  0  0  0
  8 11  1  0  0  0  0
 11 12  1  0  0  0  0
 11 31  1  0  0  0  0
 12 13  2  0  0  0  0
 13 14  1  0  0  0  0
 13 20  1  0  0  0  0
 14 15  1  0  0  0  0
 14 19  2  0  0  0  0
 15 16  2  0  0  0  0
 15 32  1  0  0  0  0
 16 17  1  0  0  0  0
 16 33  1  0  0  0  0
 17 18  2  0  0  0  0
 17 34  1  0  0  0  0
 18 19  1  0  0  0  0
 18 35  1  0  0  0  0
 19 36  1  0  0  0  0
 20 21  1  0  0  0  0
 20 26  2  0  0  0  0
 21 22  2  0  0  0  0
 21 37  1  0  0  0  0
 22 23  1  0  0  0  0
 22 38  1  0  0  0  0
 23 24  1  0  0  0  0
 23 25  2  0  0  0  0
 24 39  1  0  0  0  0
 25 26  1  0  0  0  0
 25 40  1  0  0  0  0
 26 41  1  0  0  0  0
 27 28  1  0  0  0  0
 27 42  1  0  0  0  0
 28 43  1  0  0  0  0
M  CHG  2   2   1   3  -1
M  END
>  <Line_Number>
169


> <IC50>
3900

$$$$
