14368879.0
 OpenBabel09302502333D

 26 26  0  0  0  0  0  0  0  0999 V2000
    1.0314    0.1368   -0.0537 C   0  0  0  0  0  0  0  0  0  0  0  0
    2.5515    0.0971   -0.0289 C   0  0  0  0  0  0  0  0  0  0  0  0
    3.0623   -0.7925    1.1042 C   0  0  0  0  0  0  0  0  0  0  0  0
    4.5931   -0.8559    1.1222 C   0  0  0  0  0  0  0  0  0  0  0  0
    5.1233   -1.7441    2.2227 C   0  0  0  0  0  0  0  0  0  0  0  0
    5.9339   -1.2137    3.2409 C   0  0  0  0  0  0  0  0  0  0  0  0
    6.4471   -2.0358    4.2504 C   0  0  0  0  0  0  0  0  0  0  0  0
    6.1457   -3.3918    4.2397 C   0  0  0  0  0  0  0  0  0  0  0  0
    6.6242   -4.2473    5.1930 O   0  0  0  0  0  0  0  0  0  0  0  0
    5.3392   -3.9236    3.2388 C   0  0  0  0  0  0  0  0  0  0  0  0
    5.0420   -5.2563    3.2372 O   0  0  0  0  0  0  0  0  0  0  0  0
    4.8327   -3.1168    2.2302 C   0  0  0  0  0  0  0  0  0  0  0  0
    0.6806    0.7750   -0.8706 H   0  0  0  0  0  0  0  0  0  0  0  0
    0.6348    0.5360    0.8853 H   0  0  0  0  0  0  0  0  0  0  0  0
    0.6160   -0.8651   -0.2030 H   0  0  0  0  0  0  0  0  0  0  0  0
    2.9383    1.1155    0.0913 H   0  0  0  0  0  0  0  0  0  0  0  0
    2.9168   -0.2786   -0.9919 H   0  0  0  0  0  0  0  0  0  0  0  0
    2.6410   -1.7982    0.9841 H   0  0  0  0  0  0  0  0  0  0  0  0
    2.6982   -0.4113    2.0665 H   0  0  0  0  0  0  0  0  0  0  0  0
    4.9956    0.1584    1.2330 H   0  0  0  0  0  0  0  0  0  0  0  0
    4.9686   -1.2333    0.1624 H   0  0  0  0  0  0  0  0  0  0  0  0
    6.1739   -0.1524    3.2515 H   0  0  0  0  0  0  0  0  0  0  0  0
    7.0722   -1.6010    5.0232 H   0  0  0  0  0  0  0  0  0  0  0  0
    7.2102   -3.7424    5.7823 H   0  0  0  0  0  0  0  0  0  0  0  0
    5.4962   -5.6068    4.0286 H   0  0  0  0  0  0  0  0  0  0  0  0
    4.2157   -3.5622    1.4551 H   0  0  0  0  0  0  0  0  0  0  0  0
  1  2  1  0  0  0  0
  1 13  1  0  0  0  0
  1 14  1  0  0  0  0
  1 15  1  0  0  0  0
  2  3  1  0  0  0  0
  2 16  1  0  0  0  0
  2 17  1  0  0  0  0
  3  4  1  0  0  0  0
  3 18  1  0  0  0  0
  3 19  1  0  0  0  0
  4  5  1  0  0  0  0
  4 20  1  0  0  0  0
  4 21  1  0  0  0  0
  5  6  1  0  0  0  0
  5 12  2  0  0  0  0
  6  7  2  0  0  0  0
  6 22  1  0  0  0  0
  7  8  1  0  0  0  0
  7 23  1  0  0  0  0
  8  9  1  0  0  0  0
  8 10  2  0  0  0  0
  9 24  1  0  0  0  0
 10 11  1  0  0  0  0
 10 12  1  0  0  0  0
 11 25  1  0  0  0  0
 12 26  1  0  0  0  0
M  END
>  <Line_Number>
16


> <IC50>
23000

$$$$
