17522609.0
 OpenBabel09302502333D

 42 44  0  0  0  0  0  0  0  0999 V2000
    1.5054   -0.6100   -0.9052 C   0  0  0  0  0  0  0  0  0  0  0  0
    2.3560    0.0860   -0.0031 O   0  0  0  0  0  0  0  0  0  0  0  0
    3.0793   -0.6727    0.8747 C   0  0  0  0  0  0  0  0  0  0  0  0
    3.0258   -2.0595    1.0050 C   0  0  0  0  0  0  0  0  0  0  0  0
    3.8398   -2.7157    1.9417 C   0  0  0  0  0  0  0  0  0  0  0  0
    4.7088   -2.0009    2.7767 C   0  0  0  0  0  0  0  0  0  0  0  0
    5.5206   -2.7237    3.7788 C   0  0  0  0  0  0  0  0  0  0  0  0
    5.9754   -3.9639    3.6598 N   0  0  0  0  0  0  0  0  0  0  0  0
    6.6631   -4.3418    4.8257 C   0  0  0  0  0  0  0  0  0  0  0  0
    7.2933   -5.6551    5.0262 C   0  0  0  0  0  0  0  0  0  0  0  0
    7.8684   -5.9403    6.0771 O   0  0  0  0  0  0  0  0  0  0  0  0
    7.1927   -6.5373    3.9713 N   0  0  0  0  0  0  0  0  0  0  0  0
    7.8053   -7.8628    4.0153 C   0  0  0  0  0  0  0  0  0  0  0  0
    9.2518   -7.8279    3.4986 C   0  0  0  0  0  0  0  0  0  0  0  0
    9.8815   -9.2209    3.4431 C   0  0  0  0  0  0  0  0  0  0  0  0
    9.0234  -10.1957    2.6440 C   0  0  0  0  0  0  0  0  0  0  0  0
    7.6080  -10.2634    3.2061 C   0  0  0  0  0  0  0  0  0  0  0  0
    6.9559   -8.8814    3.2439 C   0  0  0  0  0  0  0  0  0  0  0  0
    6.6879   -3.3673    5.8063 C   0  0  0  0  0  0  0  0  0  0  0  0
    5.8692   -1.9682    5.2932 S   0  0  0  0  0  0  0  0  0  0  0  0
    4.7509   -0.6035    2.6335 C   0  0  0  0  0  0  0  0  0  0  0  0
    3.9427    0.0506    1.6962 C   0  0  0  0  0  0  0  0  0  0  0  0
    1.0891    0.1210   -1.6053 H   0  0  0  0  0  0  0  0  0  0  0  0
    0.6721   -1.0759   -0.3695 H   0  0  0  0  0  0  0  0  0  0  0  0
    2.0612   -1.3482   -1.4925 H   0  0  0  0  0  0  0  0  0  0  0  0
    2.3598   -2.6639    0.3980 H   0  0  0  0  0  0  0  0  0  0  0  0
    3.7765   -3.7994    2.0269 H   0  0  0  0  0  0  0  0  0  0  0  0
    6.8075   -6.1680    3.1070 H   0  0  0  0  0  0  0  0  0  0  0  0
    7.8348   -8.1814    5.0661 H   0  0  0  0  0  0  0  0  0  0  0  0
    9.8641   -7.1829    4.1412 H   0  0  0  0  0  0  0  0  0  0  0  0
    9.2771   -7.3812    2.4965 H   0  0  0  0  0  0  0  0  0  0  0  0
   10.0143   -9.6053    4.4619 H   0  0  0  0  0  0  0  0  0  0  0  0
   10.8801   -9.1584    2.9951 H   0  0  0  0  0  0  0  0  0  0  0  0
    9.4786  -11.1930    2.6614 H   0  0  0  0  0  0  0  0  0  0  0  0
    8.9871   -9.8799    1.5941 H   0  0  0  0  0  0  0  0  0  0  0  0
    7.6378  -10.6867    4.2181 H   0  0  0  0  0  0  0  0  0  0  0  0
    7.0008  -10.9419    2.5960 H   0  0  0  0  0  0  0  0  0  0  0  0
    5.9657   -8.9622    3.7077 H   0  0  0  0  0  0  0  0  0  0  0  0
    6.7934   -8.5304    2.2177 H   0  0  0  0  0  0  0  0  0  0  0  0
    7.1407   -3.4286    6.7863 H   0  0  0  0  0  0  0  0  0  0  0  0
    5.4141    0.0068    3.2436 H   0  0  0  0  0  0  0  0  0  0  0  0
    3.9891    1.1341    1.6068 H   0  0  0  0  0  0  0  0  0  0  0  0
  1  2  1  0  0  0  0
  1 23  1  0  0  0  0
  1 24  1  0  0  0  0
  1 25  1  0  0  0  0
  2  3  1  0  0  0  0
  3  4  1  0  0  0  0
  3 22  2  0  0  0  0
  4  5  2  0  0  0  0
  4 26  1  0  0  0  0
  5  6  1  0  0  0  0
  5 27  1  0  0  0  0
  6  7  1  0  0  0  0
  6 21  2  0  0  0  0
  7  8  2  0  0  0  0
  7 20  1  0  0  0  0
  8  9  1  0  0  0  0
  9 10  1  0  0  0  0
  9 19  2  0  0  0  0
 10 11  2  0  0  0  0
 10 12  1  0  0  0  0
 12 13  1  0  0  0  0
 12 28  1  0  0  0  0
 13 14  1  0  0  0  0
 13 18  1  0  0  0  0
 13 29  1  0  0  0  0
 14 15  1  0  0  0  0
 14 30  1  0  0  0  0
 14 31  1  0  0  0  0
 15 16  1  0  0  0  0
 15 32  1  0  0  0  0
 15 33  1  0  0  0  0
 16 17  1  0  0  0  0
 16 34  1  0  0  0  0
 16 35  1  0  0  0  0
 17 18  1  0  0  0  0
 17 36  1  0  0  0  0
 17 37  1  0  0  0  0
 18 38  1  0  0  0  0
 18 39  1  0  0  0  0
 19 20  1  0  0  0  0
 19 40  1  0  0  0  0
 21 22  1  0  0  0  0
 21 41  1  0  0  0  0
 22 42  1  0  0  0  0
M  END
>  <Line_Number>
170


> <IC50>
1820

$$$$
