17133586.0
 OpenBabel09302502333D

 34 35  0  0  0  0  0  0  0  0999 V2000
    1.6759    1.1348   -0.4834 C   0  0  0  0  0  0  0  0  0  0  0  0
    2.3299   -0.0823   -0.1440 O   0  0  0  0  0  0  0  0  0  0  0  0
    3.0132   -0.7194   -1.1424 C   0  0  0  0  0  0  0  0  0  0  0  0
    3.1016   -0.3022   -2.4718 C   0  0  0  0  0  0  0  0  0  0  0  0
    3.8319   -1.0541   -3.4032 C   0  0  0  0  0  0  0  0  0  0  0  0
    4.4786   -2.2321   -3.0093 C   0  0  0  0  0  0  0  0  0  0  0  0
    5.2662   -3.0627   -3.9619 C   0  0  0  0  0  0  0  0  0  0  0  0
    6.1974   -3.7628   -3.5713 O   0  0  0  0  0  0  0  0  0  0  0  0
    4.8713   -3.0224   -5.2840 N   0  0  0  0  0  0  0  0  0  0  0  0
    5.4975   -3.8873   -6.1918 N   0  0  0  0  0  0  0  0  0  0  0  0
    5.0347   -3.8955   -7.4907 C   0  0  0  0  0  0  0  0  0  0  0  0
    4.0870   -3.2035   -7.8576 O   0  0  0  0  0  0  0  0  0  0  0  0
    5.7409   -4.7694   -8.4652 C   0  0  0  0  0  0  0  0  0  0  0  0
    6.4046   -5.9398   -8.0798 C   0  0  0  0  0  0  0  0  0  0  0  0
    7.0115   -6.7377   -9.0531 C   0  0  0  0  0  0  0  0  0  0  0  0
    7.8106   -8.1886   -8.5845 Cl  0  0  0  0  0  0  0  0  0  0  0  0
    6.9681   -6.3845  -10.4011 C   0  0  0  0  0  0  0  0  0  0  0  0
    6.3017   -5.2226  -10.7771 C   0  0  0  0  0  0  0  0  0  0  0  0
    6.2325   -4.7806  -12.4383 Cl  0  0  0  0  0  0  0  0  0  0  0  0
    5.6847   -4.4172   -9.8211 C   0  0  0  0  0  0  0  0  0  0  0  0
    4.4062   -2.6381   -1.6724 C   0  0  0  0  0  0  0  0  0  0  0  0
    3.6707   -1.8876   -0.7494 C   0  0  0  0  0  0  0  0  0  0  0  0
    1.1754    1.5092    0.4146 H   0  0  0  0  0  0  0  0  0  0  0  0
    0.9085    0.9726   -1.2478 H   0  0  0  0  0  0  0  0  0  0  0  0
    2.3990    1.8925   -0.8031 H   0  0  0  0  0  0  0  0  0  0  0  0
    2.6197    0.6072   -2.8157 H   0  0  0  0  0  0  0  0  0  0  0  0
    3.9040   -0.6858   -4.4232 H   0  0  0  0  0  0  0  0  0  0  0  0
    4.0015   -2.5989   -5.6032 H   0  0  0  0  0  0  0  0  0  0  0  0
    6.3509   -4.3372   -5.8652 H   0  0  0  0  0  0  0  0  0  0  0  0
    6.4281   -6.2586   -7.0416 H   0  0  0  0  0  0  0  0  0  0  0  0
    7.4401   -7.0142  -11.1506 H   0  0  0  0  0  0  0  0  0  0  0  0
    5.1570   -3.5160  -10.1291 H   0  0  0  0  0  0  0  0  0  0  0  0
    4.9158   -3.5414   -1.3433 H   0  0  0  0  0  0  0  0  0  0  0  0
    3.6130   -2.2157    0.2862 H   0  0  0  0  0  0  0  0  0  0  0  0
  1  2  1  0  0  0  0
  1 23  1  0  0  0  0
  1 24  1  0  0  0  0
  1 25  1  0  0  0  0
  2  3  1  0  0  0  0
  3  4  1  0  0  0  0
  3 22  2  0  0  0  0
  4  5  2  0  0  0  0
  4 26  1  0  0  0  0
  5  6  1  0  0  0  0
  5 27  1  0  0  0  0
  6  7  1  0  0  0  0
  6 21  2  0  0  0  0
  7  8  2  0  0  0  0
  7  9  1  0  0  0  0
  9 10  1  0  0  0  0
  9 28  1  0  0  0  0
 10 11  1  0  0  0  0
 10 29  1  0  0  0  0
 11 12  2  0  0  0  0
 11 13  1  0  0  0  0
 13 14  1  0  0  0  0
 13 20  2  0  0  0  0
 14 15  2  0  0  0  0
 14 30  1  0  0  0  0
 15 16  1  0  0  0  0
 15 17  1  0  0  0  0
 17 18  2  0  0  0  0
 17 31  1  0  0  0  0
 18 19  1  0  0  0  0
 18 20  1  0  0  0  0
 20 32  1  0  0  0  0
 21 22  1  0  0  0  0
 21 33  1  0  0  0  0
 22 34  1  0  0  0  0
M  END
>  <Line_Number>
171


> <IC50>
870

$$$$
