9594754.0
 OpenBabel09302502333D

 36 38  0  0  0  0  0  0  0  0999 V2000
    2.4348   -0.0720   -0.0799 C   0  0  0  0  0  0  0  0  0  0  0  0
    0.9355   -0.0196   -0.0914 C   0  0  0  0  0  0  0  0  0  0  0  0
    0.2681    1.2080   -0.1630 C   0  0  0  0  0  0  0  0  0  0  0  0
   -1.1258    1.2512   -0.1851 C   0  0  0  0  0  0  0  0  0  0  0  0
   -1.8649    0.0651   -0.1334 C   0  0  0  0  0  0  0  0  0  0  0  0
   -3.3421    0.1165   -0.1305 C   0  0  0  0  0  0  0  0  0  0  0  0
   -3.9533    1.2529   -0.2243 N   0  0  0  0  0  0  0  0  0  0  0  0
   -5.3119    1.2335   -0.1289 N   0  0  0  0  0  0  0  0  0  0  0  0
   -6.0162    2.3972   -0.2137 C   0  0  0  0  0  0  0  0  0  0  0  0
   -5.6334    3.4760   -0.8613 N   0  0  0  0  0  0  0  0  0  0  0  0
   -6.5428    4.5042   -0.7020 C   0  0  0  0  0  0  0  0  0  0  0  0
   -6.3337    5.7831   -1.3699 C   0  0  0  0  0  0  0  0  0  0  0  0
   -5.6745    5.7996   -2.6080 C   0  0  0  0  0  0  0  0  0  0  0  0
   -5.4499    7.0010   -3.2849 C   0  0  0  0  0  0  0  0  0  0  0  0
   -5.8763    8.1977   -2.7175 C   0  0  0  0  0  0  0  0  0  0  0  0
   -5.5639    9.8275   -3.6232 Br  0  0  0  0  0  0  0  0  0  0  0  0
   -6.5250    8.2027   -1.4835 C   0  0  0  0  0  0  0  0  0  0  0  0
   -6.7550    6.9970   -0.8103 C   0  0  0  0  0  0  0  0  0  0  0  0
   -7.6334    4.1922    0.0833 C   0  0  0  0  0  0  0  0  0  0  0  0
   -7.5366    2.5548    0.5883 S   0  0  0  0  0  0  0  0  0  0  0  0
   -1.2118   -1.1657   -0.0574 C   0  0  0  0  0  0  0  0  0  0  0  0
    0.1864   -1.2046   -0.0381 C   0  0  0  0  0  0  0  0  0  0  0  0
    2.8712    0.9324   -0.1026 H   0  0  0  0  0  0  0  0  0  0  0  0
    2.7989   -0.6152   -0.9580 H   0  0  0  0  0  0  0  0  0  0  0  0
    2.7900   -0.5697    0.8280 H   0  0  0  0  0  0  0  0  0  0  0  0
    0.8242    2.1422   -0.2015 H   0  0  0  0  0  0  0  0  0  0  0  0
   -1.6301    2.2143   -0.2384 H   0  0  0  0  0  0  0  0  0  0  0  0
   -3.8882   -0.8377   -0.0371 H   0  0  0  0  0  0  0  0  0  0  0  0
   -5.7417    0.4998    0.4261 H   0  0  0  0  0  0  0  0  0  0  0  0
   -5.3297    4.8658   -3.0518 H   0  0  0  0  0  0  0  0  0  0  0  0
   -4.9402    6.9857   -4.2444 H   0  0  0  0  0  0  0  0  0  0  0  0
   -6.8486    9.1378   -1.0337 H   0  0  0  0  0  0  0  0  0  0  0  0
   -7.2436    7.0256    0.1599 H   0  0  0  0  0  0  0  0  0  0  0  0
   -8.4779    4.8081    0.3544 H   0  0  0  0  0  0  0  0  0  0  0  0
   -1.7722   -2.0952   -0.0129 H   0  0  0  0  0  0  0  0  0  0  0  0
    0.6936   -2.1657    0.0193 H   0  0  0  0  0  0  0  0  0  0  0  0
  1  2  1  0  0  0  0
  1 23  1  0  0  0  0
  1 24  1  0  0  0  0
  1 25  1  0  0  0  0
  2  3  1  0  0  0  0
  2 22  2  0  0  0  0
  3  4  2  0  0  0  0
  3 26  1  0  0  0  0
  4  5  1  0  0  0  0
  4 27  1  0  0  0  0
  5  6  1  0  0  0  0
  5 21  2  0  0  0  0
  6  7  2  0  0  0  0
  6 28  1  0  0  0  0
  7  8  1  0  0  0  0
  8  9  1  0  0  0  0
  8 29  1  0  0  0  0
  9 10  2  0  0  0  0
  9 20  1  0  0  0  0
 10 11  1  0  0  0  0
 11 12  1  0  0  0  0
 11 19  2  0  0  0  0
 12 13  1  0  0  0  0
 12 18  2  0  0  0  0
 13 14  2  0  0  0  0
 13 30  1  0  0  0  0
 14 15  1  0  0  0  0
 14 31  1  0  0  0  0
 15 16  1  0  0  0  0
 15 17  2  0  0  0  0
 17 18  1  0  0  0  0
 17 32  1  0  0  0  0
 18 33  1  0  0  0  0
 19 20  1  0  0  0  0
 19 34  1  0  0  0  0
 21 22  1  0  0  0  0
 21 35  1  0  0  0  0
 22 36  1  0  0  0  0
M  END
>  <Line_Number>
172


> <IC50>
110

$$$$
