5355594.0
 OpenBabel09302502333D

 33 34  0  0  0  0  0  0  0  0999 V2000
    1.2189   -0.0044   -0.1030 C   0  0  0  0  0  0  0  0  0  0  0  0
    2.6352    0.1300   -0.0621 O   0  0  0  0  0  0  0  0  0  0  0  0
    3.2064    0.1731    1.1815 C   0  0  0  0  0  0  0  0  0  0  0  0
    2.5154    0.1147    2.3903 C   0  0  0  0  0  0  0  0  0  0  0  0
    3.2077    0.1784    3.6048 C   0  0  0  0  0  0  0  0  0  0  0  0
    4.6027    0.2965    3.6340 C   0  0  0  0  0  0  0  0  0  0  0  0
    5.3472    0.4264    4.8976 C   0  0  0  0  0  0  0  0  0  0  0  0
    4.9685   -0.1403    6.0516 C   0  0  0  0  0  0  0  0  0  0  0  0
    5.7668    0.0713    7.2922 C   0  0  0  0  0  0  0  0  0  0  0  0
    6.5593    1.0007    7.4023 O   0  0  0  0  0  0  0  0  0  0  0  0
    5.5413   -0.8685    8.4262 C   0  0  0  0  0  0  0  0  0  0  0  0
    5.1627   -2.2037    8.2211 C   0  0  0  0  0  0  0  0  0  0  0  0
    5.0047   -3.0663    9.3107 C   0  0  0  0  0  0  0  0  0  0  0  0
    5.2308   -2.5922   10.5991 C   0  0  0  0  0  0  0  0  0  0  0  0
    5.1036   -3.4030   11.6865 O   0  0  0  0  0  0  0  0  0  0  0  0
    5.6061   -1.2713   10.8166 C   0  0  0  0  0  0  0  0  0  0  0  0
    5.7665   -0.4080    9.7301 C   0  0  0  0  0  0  0  0  0  0  0  0
    5.2888    0.3606    2.4162 C   0  0  0  0  0  0  0  0  0  0  0  0
    4.5957    0.2960    1.2005 C   0  0  0  0  0  0  0  0  0  0  0  0
    0.9125   -0.0660   -1.1514 H   0  0  0  0  0  0  0  0  0  0  0  0
    0.7285    0.8708    0.3375 H   0  0  0  0  0  0  0  0  0  0  0  0
    0.8954   -0.9268    0.3908 H   0  0  0  0  0  0  0  0  0  0  0  0
    1.4347    0.0291    2.4304 H   0  0  0  0  0  0  0  0  0  0  0  0
    2.6295    0.1548    4.5236 H   0  0  0  0  0  0  0  0  0  0  0  0
    6.2574    1.0238    4.8555 H   0  0  0  0  0  0  0  0  0  0  0  0
    4.0806   -0.7522    6.1300 H   0  0  0  0  0  0  0  0  0  0  0  0
    5.0158   -2.6012    7.2207 H   0  0  0  0  0  0  0  0  0  0  0  0
    4.7205   -4.0994    9.1345 H   0  0  0  0  0  0  0  0  0  0  0  0
    4.8777   -4.2991   11.3884 H   0  0  0  0  0  0  0  0  0  0  0  0
    5.7845   -0.9164   11.8281 H   0  0  0  0  0  0  0  0  0  0  0  0
    6.0727    0.6217    9.9041 H   0  0  0  0  0  0  0  0  0  0  0  0
    6.3737    0.4604    2.3960 H   0  0  0  0  0  0  0  0  0  0  0  0
    5.1460    0.3462    0.2632 H   0  0  0  0  0  0  0  0  0  0  0  0
  1  2  1  0  0  0  0
  1 20  1  0  0  0  0
  1 21  1  0  0  0  0
  1 22  1  0  0  0  0
  2  3  1  0  0  0  0
  3  4  1  0  0  0  0
  3 19  2  0  0  0  0
  4  5  2  0  0  0  0
  4 23  1  0  0  0  0
  5  6  1  0  0  0  0
  5 24  1  0  0  0  0
  6  7  1  0  0  0  0
  6 18  2  0  0  0  0
  7  8  2  0  0  0  0
  7 25  1  0  0  0  0
  8  9  1  0  0  0  0
  8 26  1  0  0  0  0
  9 10  2  0  0  0  0
  9 11  1  0  0  0  0
 11 12  1  0  0  0  0
 11 17  2  0  0  0  0
 12 13  2  0  0  0  0
 12 27  1  0  0  0  0
 13 14  1  0  0  0  0
 13 28  1  0  0  0  0
 14 15  1  0  0  0  0
 14 16  2  0  0  0  0
 15 29  1  0  0  0  0
 16 17  1  0  0  0  0
 16 30  1  0  0  0  0
 17 31  1  0  0  0  0
 18 19  1  0  0  0  0
 18 32  1  0  0  0  0
 19 33  1  0  0  0  0
M  END
>  <Line_Number>
173


> <IC50>
11510

$$$$
