168286052.0
 OpenBabel09302502333D

 67 73  0  0  0  0  0  0  0  0999 V2000
   -0.8571    1.6288    2.1436 O   0  0  0  0  0  0  0  0  0  0  0  0
   -0.4827    0.4758    2.0298 N   0  3  0  0  0  0  0  0  0  0  0  0
   -1.0194   -0.4007    1.3162 O   0  5  0  0  0  0  0  0  0  0  0  0
    0.7021    0.0479    2.7952 C   0  0  0  0  0  0  0  0  0  0  0  0
    1.3636    0.9876    3.6017 C   0  0  0  0  0  0  0  0  0  0  0  0
    2.4777    0.5949    4.3625 C   0  0  0  0  0  0  0  0  0  0  0  0
    2.9356   -0.7290    4.3298 C   0  0  0  0  0  0  0  0  0  0  0  0
    4.4284   -1.1613    5.2020 S   0  0  0  0  0  0  0  0  0  0  0  0
    5.2543   -1.8495    4.2934 O   0  0  0  0  0  0  0  0  0  0  0  0
    4.8633    0.0561    5.8916 O   0  0  0  0  0  0  0  0  0  0  0  0
    3.8512   -2.2501    6.3757 N   0  0  0  0  0  0  0  0  0  0  0  0
    4.7015   -2.3125    7.5158 C   0  0  0  0  0  0  0  0  0  0  0  0
    5.6913   -3.1701    7.5294 N   0  0  0  0  0  0  0  0  0  0  0  0
    6.2508   -3.2621    8.7719 N   0  0  0  0  0  0  0  0  0  0  0  0
    5.6332   -2.5199    9.6755 C   0  0  0  0  0  0  0  0  0  0  0  0
    6.0490   -2.5091   11.0904 C   0  0  0  0  0  0  0  0  0  0  0  0
    5.8595   -1.4431   11.9788 C   0  0  0  0  0  0  0  0  0  0  0  0
    6.5827   -1.3939   13.1861 C   0  0  0  0  0  0  0  0  0  0  0  0
    7.5000   -2.4052   13.5222 C   0  0  0  0  0  0  0  0  0  0  0  0
    8.4685   -2.1950   14.6709 C   0  0  0  0  0  0  0  0  0  0  0  0
    8.6324   -3.5270   15.3885 C   0  0  0  0  0  0  0  0  0  0  0  0
    9.6000   -4.4873   15.1362 C   0  0  0  0  0  0  0  0  0  0  0  0
    9.3476   -5.5284   15.9832 N   0  0  0  0  0  0  0  0  0  0  0  0
    8.0218   -5.4888   16.3183 C   0  0  0  0  0  0  0  0  0  0  0  0
    7.1000   -6.4856   16.6359 C   0  0  0  0  0  0  0  0  0  0  0  0
    5.8908   -6.0560   17.1828 C   0  0  0  0  0  0  0  0  0  0  0  0
    5.7012   -4.7117   17.5086 C   0  0  0  0  0  0  0  0  0  0  0  0
    4.1633   -4.2200   18.4945 Br  0  0  0  0  0  0  0  0  0  0  0  0
    6.6017   -3.7197   17.0965 C   0  0  0  0  0  0  0  0  0  0  0  0
    7.7286   -4.1257   16.3475 C   0  0  0  0  0  0  0  0  0  0  0  0
    9.7667   -1.5897   14.1476 C   0  0  0  0  0  0  0  0  0  0  0  0
   10.6099   -0.9169   15.0324 C   0  0  0  0  0  0  0  0  0  0  0  0
   11.8338   -0.8569   14.4208 N   0  0  0  0  0  0  0  0  0  0  0  0
   11.5337   -0.5614   13.1146 C   0  0  0  0  0  0  0  0  0  0  0  0
   12.2252    0.2502   12.2126 C   0  0  0  0  0  0  0  0  0  0  0  0
   11.7643    0.2518   10.9062 C   0  0  0  0  0  0  0  0  0  0  0  0
   10.7594   -0.6370   10.5242 C   0  0  0  0  0  0  0  0  0  0  0  0
   10.3158   -0.7270    8.6823 Br  0  0  0  0  0  0  0  0  0  0  0  0
   10.0633   -1.4335   11.4612 C   0  0  0  0  0  0  0  0  0  0  0  0
   10.3705   -1.2937   12.8328 C   0  0  0  0  0  0  0  0  0  0  0  0
    7.5211   -3.5536   12.7193 C   0  0  0  0  0  0  0  0  0  0  0  0
    6.8142   -3.6000   11.5256 C   0  0  0  0  0  0  0  0  0  0  0  0
    4.3536   -1.5798    9.0279 S   0  0  0  0  0  0  0  0  0  0  0  0
    2.2804   -1.6417    3.4927 C   0  0  0  0  0  0  0  0  0  0  0  0
    2.6966   -3.0210    3.3915 N   0  3  0  0  0  0  0  0  0  0  0  0
    2.7261   -3.6875    4.4395 O   0  0  0  0  0  0  0  0  0  0  0  0
    2.9453   -3.4633    2.2622 O   0  5  0  0  0  0  0  0  0  0  0  0
    1.1635   -1.2725    2.7310 C   0  0  0  0  0  0  0  0  0  0  0  0
    1.0362    2.0247    3.6492 H   0  0  0  0  0  0  0  0  0  0  0  0
    2.9940    1.3493    4.9606 H   0  0  0  0  0  0  0  0  0  0  0  0
    3.9778   -3.1662    5.9289 H   0  0  0  0  0  0  0  0  0  0  0  0
    5.2218   -0.6023   11.7278 H   0  0  0  0  0  0  0  0  0  0  0  0
    6.4680   -0.5243   13.8316 H   0  0  0  0  0  0  0  0  0  0  0  0
    8.0366   -1.4863   15.3897 H   0  0  0  0  0  0  0  0  0  0  0  0
   10.4377   -4.5119   14.4429 H   0  0  0  0  0  0  0  0  0  0  0  0
   10.0417   -6.1314   16.4071 H   0  0  0  0  0  0  0  0  0  0  0  0
    7.2864   -7.5212   16.4126 H   0  0  0  0  0  0  0  0  0  0  0  0
    5.1111   -6.7908   17.3809 H   0  0  0  0  0  0  0  0  0  0  0  0
    6.4201   -2.6749   17.3068 H   0  0  0  0  0  0  0  0  0  0  0  0
   10.4858   -0.6081   16.0616 H   0  0  0  0  0  0  0  0  0  0  0  0
   12.5593   -1.5313   14.6348 H   0  0  0  0  0  0  0  0  0  0  0  0
   13.0380    0.8859   12.5388 H   0  0  0  0  0  0  0  0  0  0  0  0
   12.2192    0.9354   10.1929 H   0  0  0  0  0  0  0  0  0  0  0  0
    9.2539   -2.0662   11.1139 H   0  0  0  0  0  0  0  0  0  0  0  0
    8.1534   -4.4031   12.9612 H   0  0  0  0  0  0  0  0  0  0  0  0
    6.9402   -4.4769   10.8933 H   0  0  0  0  0  0  0  0  0  0  0  0
    0.6575   -2.0024    2.0957 H   0  0  0  0  0  0  0  0  0  0  0  0
  1  2  2  0  0  0  0
  2  3  1  0  0  0  0
  2  4  1  0  0  0  0
  4  5  1  0  0  0  0
  4 48  2  0  0  0  0
  5  6  2  0  0  0  0
  5 49  1  0  0  0  0
  6  7  1  0  0  0  0
  6 50  1  0  0  0  0
  7  8  1  0  0  0  0
  7 44  2  0  0  0  0
  8  9  2  0  0  0  0
  8 10  2  0  0  0  0
  8 11  1  0  0  0  0
 11 12  1  0  0  0  0
 11 51  1  0  0  0  0
 12 13  2  0  0  0  0
 12 43  1  0  0  0  0
 13 14  1  0  0  0  0
 14 15  2  0  0  0  0
 15 16  1  0  0  0  0
 15 43  1  0  0  0  0
 16 17  1  0  0  0  0
 16 42  2  0  0  0  0
 17 18  2  0  0  0  0
 17 52  1  0  0  0  0
 18 19  1  0  0  0  0
 18 53  1  0  0  0  0
 19 20  1  0  0  0  0
 19 41  2  0  0  0  0
 20 21  1  0  0  0  0
 20 31  1  0  0  0  0
 20 54  1  0  0  0  0
 21 22  2  0  0  0  0
 21 30  1  0  0  0  0
 22 23  1  0  0  0  0
 22 55  1  0  0  0  0
 23 24  1  0  0  0  0
 23 56  1  0  0  0  0
 24 25  1  0  0  0  0
 24 30  2  0  0  0  0
 25 26  2  0  0  0  0
 25 57  1  0  0  0  0
 26 27  1  0  0  0  0
 26 58  1  0  0  0  0
 27 28  1  0  0  0  0
 27 29  2  0  0  0  0
 29 30  1  0  0  0  0
 29 59  1  0  0  0  0
 31 32  2  0  0  0  0
 31 40  1  0  0  0  0
 32 33  1  0  0  0  0
 32 60  1  0  0  0  0
 33 34  1  0  0  0  0
 33 61  1  0  0  0  0
 34 35  1  0  0  0  0
 34 40  2  0  0  0  0
 35 36  2  0  0  0  0
 35 62  1  0  0  0  0
 36 37  1  0  0  0  0
 36 63  1  0  0  0  0
 37 38  1  0  0  0  0
 37 39  2  0  0  0  0
 39 40  1  0  0  0  0
 39 64  1  0  0  0  0
 41 42  1  0  0  0  0
 41 65  1  0  0  0  0
 42 66  1  0  0  0  0
 44 45  1  0  0  0  0
 44 48  1  0  0  0  0
 45 46  2  0  0  0  0
 45 47  1  0  0  0  0
 48 67  1  0  0  0  0
M  CHG  4   2   1   3  -1  45   1  47  -1
M  END
>  <Line_Number>
174


> <IC50>
500

$$$$
