386828
 OpenBabel09302502333D

 51 54  0  0  0  0  0  0  0  0999 V2000
    1.1100   -1.1666   -1.6719 C   0  0  0  0  0  0  0  0  0  0  0  0
    2.5448   -1.0951   -1.6165 N   0  0  0  0  0  0  0  0  0  0  0  0
    3.2257   -1.0535   -0.4267 C   0  0  0  0  0  0  0  0  0  0  0  0
    2.6703   -1.0336    0.6676 O   0  0  0  0  0  0  0  0  0  0  0  0
    4.7067   -1.0315   -0.5539 C   0  0  0  0  0  0  0  0  0  0  0  0
    5.4463   -0.6605    0.5068 C   0  0  0  0  0  0  0  0  0  0  0  0
    6.8277   -0.5907    0.5498 N   0  0  0  0  0  0  0  0  0  0  0  0
    7.4598   -0.1317    1.8044 C   0  0  0  0  0  0  0  0  0  0  0  0
    7.2292    1.2745    2.3092 C   0  0  0  0  0  0  0  0  0  0  0  0
    8.5921    0.8683    1.8535 C   0  0  0  0  0  0  0  0  0  0  0  0
    7.5739   -1.1227   -0.5351 C   0  0  0  0  0  0  0  0  0  0  0  0
    8.9596   -1.3024   -0.4839 C   0  0  0  0  0  0  0  0  0  0  0  0
    9.7102   -1.8002   -1.5657 C   0  0  0  0  0  0  0  0  0  0  0  0
   11.0707   -1.9658   -1.3995 N   0  0  0  0  0  0  0  0  0  0  0  0
   11.8308   -2.9817   -2.1439 C   0  0  0  0  0  0  0  0  0  0  0  0
   12.9395   -3.5319   -1.2216 C   0  0  0  0  0  0  0  0  0  0  0  0
   13.7600   -2.4541   -0.6345 N   0  0  0  0  0  0  0  0  0  0  0  0
   15.1323   -2.5757   -0.6695 C   0  0  0  0  0  0  0  0  0  0  0  0
   16.0032   -1.4989   -0.0762 C   0  0  0  0  0  0  0  0  0  0  0  0
   15.6835   -3.5446   -1.2016 O   0  0  0  0  0  0  0  0  0  0  0  0
   12.9762   -1.3988    0.0296 C   0  0  0  0  0  0  0  0  0  0  0  0
   11.8872   -0.8449   -0.9054 C   0  0  0  0  0  0  0  0  0  0  0  0
    9.0008   -2.1538   -2.7240 C   0  0  0  0  0  0  0  0  0  0  0  0
    9.6473   -2.6283   -3.8006 F   0  0  0  0  0  0  0  0  0  0  0  0
    7.6211   -2.0135   -2.8076 C   0  0  0  0  0  0  0  0  0  0  0  0
    6.9142   -1.5034   -1.7155 C   0  0  0  0  0  0  0  0  0  0  0  0
    5.4437   -1.3854   -1.7930 C   0  0  0  0  0  0  0  0  0  0  0  0
    4.8608   -1.5956   -2.8553 O   0  0  0  0  0  0  0  0  0  0  0  0
    0.7946   -1.0777   -2.7135 H   0  0  0  0  0  0  0  0  0  0  0  0
    0.6801   -0.3545   -1.0795 H   0  0  0  0  0  0  0  0  0  0  0  0
    0.7852   -2.1270   -1.2627 H   0  0  0  0  0  0  0  0  0  0  0  0
    3.0783   -1.2122   -2.4792 H   0  0  0  0  0  0  0  0  0  0  0  0
    4.9648   -0.3748    1.4423 H   0  0  0  0  0  0  0  0  0  0  0  0
    7.4854   -0.9230    2.5515 H   0  0  0  0  0  0  0  0  0  0  0  0
    7.0712    1.4173    3.3709 H   0  0  0  0  0  0  0  0  0  0  0  0
    6.6879    1.9714    1.6791 H   0  0  0  0  0  0  0  0  0  0  0  0
    9.3580    0.7233    2.6077 H   0  0  0  0  0  0  0  0  0  0  0  0
    8.9576    1.2993    0.9292 H   0  0  0  0  0  0  0  0  0  0  0  0
    9.4854   -1.1036    0.4442 H   0  0  0  0  0  0  0  0  0  0  0  0
   12.2720   -2.5316   -3.0415 H   0  0  0  0  0  0  0  0  0  0  0  0
   11.1986   -3.8220   -2.4505 H   0  0  0  0  0  0  0  0  0  0  0  0
   13.5497   -4.2509   -1.7747 H   0  0  0  0  0  0  0  0  0  0  0  0
   12.4816   -4.0686   -0.3803 H   0  0  0  0  0  0  0  0  0  0  0  0
   15.4784   -0.6949    0.4296 H   0  0  0  0  0  0  0  0  0  0  0  0
   16.5969   -1.0564   -0.8819 H   0  0  0  0  0  0  0  0  0  0  0  0
   16.6741   -1.9612    0.6537 H   0  0  0  0  0  0  0  0  0  0  0  0
   13.5881   -0.5726    0.3836 H   0  0  0  0  0  0  0  0  0  0  0  0
   12.5084   -1.8592    0.9097 H   0  0  0  0  0  0  0  0  0  0  0  0
   12.3551   -0.3377   -1.7593 H   0  0  0  0  0  0  0  0  0  0  0  0
   11.3043   -0.0886   -0.3688 H   0  0  0  0  0  0  0  0  0  0  0  0
    7.1104   -2.3086   -3.7198 H   0  0  0  0  0  0  0  0  0  0  0  0
  1  2  1  0  0  0  0
  1 29  1  0  0  0  0
  1 30  1  0  0  0  0
  1 31  1  0  0  0  0
  2  3  1  0  0  0  0
  2 32  1  0  0  0  0
  3  4  2  0  0  0  0
  3  5  1  0  0  0  0
  5  6  2  0  0  0  0
  5 27  1  0  0  0  0
  6  7  1  0  0  0  0
  6 33  1  0  0  0  0
  7  8  1  0  0  0  0
  7 11  1  0  0  0  0
  8  9  1  0  0  0  0
  8 10  1  0  0  0  0
  8 34  1  0  0  0  0
  9 10  1  0  0  0  0
  9 35  1  0  0  0  0
  9 36  1  0  0  0  0
 10 37  1  0  0  0  0
 10 38  1  0  0  0  0
 11 12  1  0  0  0  0
 11 26  2  0  0  0  0
 12 13  2  0  0  0  0
 12 39  1  0  0  0  0
 13 14  1  0  0  0  0
 13 23  1  0  0  0  0
 14 15  1  0  0  0  0
 14 22  1  0  0  0  0
 15 16  1  0  0  0  0
 15 40  1  0  0  0  0
 15 41  1  0  0  0  0
 16 17  1  0  0  0  0
 16 42  1  0  0  0  0
 16 43  1  0  0  0  0
 17 18  1  0  0  0  0
 17 21  1  0  0  0  0
 18 19  1  0  0  0  0
 18 20  2  0  0  0  0
 19 44  1  0  0  0  0
 19 45  1  0  0  0  0
 19 46  1  0  0  0  0
 21 22  1  0  0  0  0
 21 47  1  0  0  0  0
 21 48  1  0  0  0  0
 22 49  1  0  0  0  0
 22 50  1  0  0  0  0
 23 24  1  0  0  0  0
 23 25  2  0  0  0  0
 25 26  1  0  0  0  0
 25 51  1  0  0  0  0
 26 27  1  0  0  0  0
 27 28  2  0  0  0  0
M  END
>  <Line_Number>
175


> <IC50>
1290

$$$$
