386836
 OpenBabel09302502333D

 78 83  0  0  0  0  0  0  0  0999 V2000
    1.4645   -2.3672   -1.7458 N   0  0  0  0  0  0  0  0  0  0  0  0
    2.7372   -2.3564   -1.2205 N   0  0  0  0  0  0  0  0  0  0  0  0
    3.6007   -3.5488   -1.3293 C   0  0  0  0  0  0  0  0  0  0  0  0
    3.1903   -4.5901   -1.8991 O   0  0  0  0  0  0  0  0  0  0  0  0
    5.0236   -3.5361   -0.7443 C   0  0  0  0  0  0  0  0  0  0  0  0
    5.8334   -4.6590   -0.8481 C   0  0  0  0  0  0  0  0  0  0  0  0
    7.1308   -4.6578   -0.3130 N   0  0  0  0  0  0  0  0  0  0  0  0
    7.9789   -5.8578   -0.4163 C   0  0  0  0  0  0  0  0  0  0  0  0
    9.4066   -6.4028   -0.5213 C   0  0  0  0  0  0  0  0  0  0  0  0
    8.3511   -6.8048   -1.5600 C   0  0  0  0  0  0  0  0  0  0  0  0
    7.6746   -3.4614    0.2880 C   0  0  0  0  0  0  0  0  0  0  0  0
    8.9849   -3.3572    0.7775 C   0  0  0  0  0  0  0  0  0  0  0  0
    9.5383   -2.1656    1.3023 C   0  0  0  0  0  0  0  0  0  0  0  0
   10.8832   -2.1165    1.6352 N   0  0  0  0  0  0  0  0  0  0  0  0
   11.4277   -1.2079    2.6540 C   0  0  0  0  0  0  0  0  0  0  0  0
   12.5595   -0.3402    2.0558 C   0  0  0  0  0  0  0  0  0  0  0  0
   13.6571   -1.0882    1.3724 N   0  0  0  0  0  0  0  0  0  0  0  0
   14.4299   -1.9281    2.3125 C   0  0  0  0  0  0  0  0  0  0  0  0
   15.0493   -1.1093    3.4341 C   0  0  0  0  0  0  0  0  0  0  0  0
   14.7274   -1.3550    4.5973 O   0  0  0  0  0  0  0  0  0  0  0  0
   15.9259   -0.1189    3.0101 N   0  0  0  0  0  0  0  0  0  0  0  0
   16.6397    0.7287    3.8827 C   0  0  0  0  0  0  0  0  0  0  0  0
   16.8180    0.4050    5.2285 C   0  0  0  0  0  0  0  0  0  0  0  0
   17.3824    1.3102    6.1223 C   0  0  0  0  0  0  0  0  0  0  0  0
   17.8070    2.5599    5.6806 C   0  0  0  0  0  0  0  0  0  0  0  0
   18.2840    3.5016    6.7323 C   0  0  0  0  0  0  0  0  0  0  0  0
   18.7555    3.0667    7.7820 O   0  0  0  0  0  0  0  0  0  0  0  0
   18.0952    4.9563    6.5101 C   0  0  0  0  0  0  0  0  0  0  0  0
   18.4766    5.8452    7.4630 C   0  0  0  0  0  0  0  0  0  0  0  0
   18.3753    7.3368    7.1884 C   0  0  0  0  0  0  0  0  0  0  0  0
   17.3770    7.8444    6.3182 C   0  0  0  0  0  0  0  0  0  0  0  0
   17.4871    9.1507    5.8572 C   0  0  0  0  0  0  0  0  0  0  0  0
   18.3269    9.9610    6.4246 C   0  0  0  0  0  0  0  0  0  0  0  0
   19.1117    9.5421    7.5022 C   0  0  0  0  0  0  0  0  0  0  0  0
   19.2273    8.1789    7.7707 C   0  0  0  0  0  0  0  0  0  0  0  0
   17.7459    2.8547    4.3082 C   0  0  0  0  0  0  0  0  0  0  0  0
   17.1657    1.9366    3.4124 C   0  0  0  0  0  0  0  0  0  0  0  0
   13.0194   -1.9692    0.3570 C   0  0  0  0  0  0  0  0  0  0  0  0
   11.8755   -2.8868    0.8693 C   0  0  0  0  0  0  0  0  0  0  0  0
    8.6579   -1.0795    1.4308 C   0  0  0  0  0  0  0  0  0  0  0  0
    9.0767    0.1092    1.8915 F   0  0  0  0  0  0  0  0  0  0  0  0
    7.3353   -1.1585    1.0191 C   0  0  0  0  0  0  0  0  0  0  0  0
    6.8766   -2.3346    0.4239 C   0  0  0  0  0  0  0  0  0  0  0  0
    5.5270   -2.3996   -0.1000 C   0  0  0  0  0  0  0  0  0  0  0  0
    4.7833   -1.3697   -0.0040 O   0  0  0  0  0  0  0  0  0  0  0  0
    1.0085   -1.4648   -1.5827 H   0  0  0  0  0  0  0  0  0  0  0  0
    0.9126   -3.1037   -1.3010 H   0  0  0  0  0  0  0  0  0  0  0  0
    3.1224   -1.5497   -0.7505 H   0  0  0  0  0  0  0  0  0  0  0  0
    5.4913   -5.5010   -1.3173 H   0  0  0  0  0  0  0  0  0  0  0  0
    7.3165   -5.6835    0.4093 H   0  0  0  0  0  0  0  0  0  0  0  0
    9.7096   -7.1516    0.1993 H   0  0  0  0  0  0  0  0  0  0  0  0
   10.1855   -5.7328   -0.8594 H   0  0  0  0  0  0  0  0  0  0  0  0
    7.9713   -7.8093   -1.5629 H   0  0  0  0  0  0  0  0  0  0  0  0
    8.2820   -6.7706   -2.6272 H   0  0  0  0  0  0  0  0  0  0  0  0
    9.6103   -4.2365    0.7754 H   0  0  0  0  0  0  0  0  0  0  0  0
   11.8150   -1.8141    3.4809 H   0  0  0  0  0  0  0  0  0  0  0  0
   10.6774   -0.5580    3.1106 H   0  0  0  0  0  0  0  0  0  0  0  0
   12.9680    0.3132    2.8350 H   0  0  0  0  0  0  0  0  0  0  0  0
   12.1196    0.3410    1.3146 H   0  0  0  0  0  0  0  0  0  0  0  0
   15.2468   -2.4369    1.7868 H   0  0  0  0  0  0  0  0  0  0  0  0
   13.8188   -2.7061    2.7843 H   0  0  0  0  0  0  0  0  0  0  0  0
   15.8493    0.1373    2.0292 H   0  0  0  0  0  0  0  0  0  0  0  0
   16.5098   -0.5548    5.6309 H   0  0  0  0  0  0  0  0  0  0  0  0
   17.4496    1.0393    7.1736 H   0  0  0  0  0  0  0  0  0  0  0  0
   17.6877    5.2720    5.5612 H   0  0  0  0  0  0  0  0  0  0  0  0
   18.9162    5.5341    8.4068 H   0  0  0  0  0  0  0  0  0  0  0  0
   16.6139    7.2019    5.8913 H   0  0  0  0  0  0  0  0  0  0  0  0
   16.8063    9.4974    5.0840 H   0  0  0  0  0  0  0  0  0  0  0  0
   18.3686   11.0096    6.1358 H   0  0  0  0  0  0  0  0  0  0  0  0
   19.7575   10.2523    8.0127 H   0  0  0  0  0  0  0  0  0  0  0  0
   19.9614    7.8439    8.4981 H   0  0  0  0  0  0  0  0  0  0  0  0
   18.1359    3.7896    3.9178 H   0  0  0  0  0  0  0  0  0  0  0  0
   17.1047    2.2000    2.3569 H   0  0  0  0  0  0  0  0  0  0  0  0
   13.7839   -2.5873   -0.1306 H   0  0  0  0  0  0  0  0  0  0  0  0
   12.6134   -1.3240   -0.4333 H   0  0  0  0  0  0  0  0  0  0  0  0
   12.2713   -3.6837    1.5093 H   0  0  0  0  0  0  0  0  0  0  0  0
   11.4451   -3.3733   -0.0132 H   0  0  0  0  0  0  0  0  0  0  0  0
    6.6944   -0.2881    1.1346 H   0  0  0  0  0  0  0  0  0  0  0  0
  1  2  1  0  0  0  0
  1 46  1  0  0  0  0
  1 47  1  0  0  0  0
  2  3  1  0  0  0  0
  2 48  1  0  0  0  0
  3  4  2  0  0  0  0
  3  5  1  0  0  0  0
  5  6  2  0  0  0  0
  5 44  1  0  0  0  0
  6  7  1  0  0  0  0
  6 49  1  0  0  0  0
  7  8  1  0  0  0  0
  7 11  1  0  0  0  0
  8  9  1  0  0  0  0
  8 10  1  0  0  0  0
  8 50  1  0  0  0  0
  9 10  1  0  0  0  0
  9 51  1  0  0  0  0
  9 52  1  0  0  0  0
 10 53  1  0  0  0  0
 10 54  1  0  0  0  0
 11 12  1  0  0  0  0
 11 43  2  0  0  0  0
 12 13  2  0  0  0  0
 12 55  1  0  0  0  0
 13 14  1  0  0  0  0
 13 40  1  0  0  0  0
 14 15  1  0  0  0  0
 14 39  1  0  0  0  0
 15 16  1  0  0  0  0
 15 56  1  0  0  0  0
 15 57  1  0  0  0  0
 16 17  1  0  0  0  0
 16 58  1  0  0  0  0
 16 59  1  0  0  0  0
 17 18  1  0  0  0  0
 17 38  1  0  0  0  0
 18 19  1  0  0  0  0
 18 60  1  0  0  0  0
 18 61  1  0  0  0  0
 19 20  2  0  0  0  0
 19 21  1  0  0  0  0
 21 22  1  0  0  0  0
 21 62  1  0  0  0  0
 22 23  1  0  0  0  0
 22 37  2  0  0  0  0
 23 24  2  0  0  0  0
 23 63  1  0  0  0  0
 24 25  1  0  0  0  0
 24 64  1  0  0  0  0
 25 26  1  0  0  0  0
 25 36  2  0  0  0  0
 26 27  2  0  0  0  0
 26 28  1  0  0  0  0
 28 29  2  0  0  0  0
 28 65  1  0  0  0  0
 29 30  1  0  0  0  0
 29 66  1  0  0  0  0
 30 31  1  0  0  0  0
 30 35  2  0  0  0  0
 31 32  2  0  0  0  0
 31 67  1  0  0  0  0
 32 33  1  0  0  0  0
 32 68  1  0  0  0  0
 33 34  2  0  0  0  0
 33 69  1  0  0  0  0
 34 35  1  0  0  0  0
 34 70  1  0  0  0  0
 35 71  1  0  0  0  0
 36 37  1  0  0  0  0
 36 72  1  0  0  0  0
 37 73  1  0  0  0  0
 38 39  1  0  0  0  0
 38 74  1  0  0  0  0
 38 75  1  0  0  0  0
 39 76  1  0  0  0  0
 39 77  1  0  0  0  0
 40 41  1  0  0  0  0
 40 42  2  0  0  0  0
 42 43  1  0  0  0  0
 42 78  1  0  0  0  0
 43 44  1  0  0  0  0
 44 45  2  0  0  0  0
M  END
>  <Line_Number>
176


> <IC50>
812060

$$$$
