386839
 OpenBabel09302502333D

 50 53  0  0  1  0  0  0  0  0999 V2000
    1.0840   -0.6918    0.2291 C   0  0  0  0  0  0  0  0  0  0  0  0
    2.5170   -0.7447    0.1273 N   0  0  0  0  0  0  0  0  0  0  0  0
    3.1597   -0.5911   -1.0733 C   0  0  0  0  0  0  0  0  0  0  0  0
    2.5612   -0.4244   -2.1328 O   0  0  0  0  0  0  0  0  0  0  0  0
    4.6471   -0.6339   -1.0127 C   0  0  0  0  0  0  0  0  0  0  0  0
    5.3352   -0.4619   -2.1524 C   0  0  0  0  0  0  0  0  0  0  0  0
    6.7103   -0.4684   -2.2782 N   0  0  0  0  0  0  0  0  0  0  0  0
    7.5291   -0.6711   -1.1405 C   0  0  0  0  0  0  0  0  0  0  0  0
    8.9477   -0.7016   -1.2230 C   0  0  0  0  0  0  0  0  0  0  0  0
    9.7653   -0.8617   -0.0747 C   0  0  0  0  0  0  0  0  0  0  0  0
   11.1586   -0.9178   -0.0883 N   0  0  0  0  0  0  0  0  0  0  0  0
   11.9332   -1.2104   -1.3036 C   0  0  0  0  0  0  0  0  0  0  0  0
   13.2686   -1.8872   -0.9116 C   0  0  0  0  0  0  0  0  0  0  0  0
   14.0666   -1.0983    0.0544 N   0  0  0  0  0  0  0  0  0  0  0  0
   15.2644   -1.8397    0.4417 C   0  0  0  0  0  0  0  0  0  0  0  0
   13.2337   -0.7979    1.2437 C   0  0  0  0  0  0  0  0  0  0  0  0
   11.9122   -0.0842    0.8731 C   0  0  0  0  0  0  0  0  0  0  0  0
    9.0772   -1.0512    1.1481 C   0  0  0  0  0  0  0  0  0  0  0  0
    9.7639   -1.3090    2.2748 F   0  0  0  0  0  0  0  0  0  0  0  0
    7.6917   -1.0465    1.2526 C   0  0  0  0  0  0  0  0  0  0  0  0
    6.9217   -0.8513    0.1121 C   0  0  0  0  0  0  0  0  0  0  0  0
    5.4419   -0.8344    0.2260 C   0  0  0  0  0  0  0  0  0  0  0  0
    4.9037   -0.9801    1.3214 O   0  0  0  0  0  0  0  0  0  0  0  0
    9.5727   -0.5171   -2.4450 O   0  0  0  0  0  0  0  0  0  0  0  0
    8.7466   -0.9087   -3.5451 C   0  0  0  0  0  0  0  0  0  0  0  0
    7.4201   -0.1526   -3.5264 C   0  0  2  0  0  0  0  0  0  0  0  0
    7.6255    1.3600   -3.6461 C   0  0  0  0  0  0  0  0  0  0  0  0
    0.8053   -0.6948    1.2849 H   0  0  0  0  0  0  0  0  0  0  0  0
    0.6572   -1.5629   -0.2748 H   0  0  0  0  0  0  0  0  0  0  0  0
    0.7187    0.2197   -0.2519 H   0  0  0  0  0  0  0  0  0  0  0  0
    3.0752   -0.9040    0.9673 H   0  0  0  0  0  0  0  0  0  0  0  0
    4.8146   -0.2969   -3.0947 H   0  0  0  0  0  0  0  0  0  0  0  0
   12.1309   -0.2862   -1.8620 H   0  0  0  0  0  0  0  0  0  0  0  0
   11.4079   -1.9162   -1.9556 H   0  0  0  0  0  0  0  0  0  0  0  0
   13.8527   -2.0495   -1.8250 H   0  0  0  0  0  0  0  0  0  0  0  0
   13.0385   -2.8752   -0.4887 H   0  0  0  0  0  0  0  0  0  0  0  0
   15.8898   -2.0368   -0.4360 H   0  0  0  0  0  0  0  0  0  0  0  0
   15.0255   -2.7990    0.9153 H   0  0  0  0  0  0  0  0  0  0  0  0
   15.8718   -1.2522    1.1381 H   0  0  0  0  0  0  0  0  0  0  0  0
   13.7959   -0.1545    1.9304 H   0  0  0  0  0  0  0  0  0  0  0  0
   12.9917   -1.7251    1.7818 H   0  0  0  0  0  0  0  0  0  0  0  0
   12.1314    0.8902    0.4161 H   0  0  0  0  0  0  0  0  0  0  0  0
   11.3619    0.1266    1.7948 H   0  0  0  0  0  0  0  0  0  0  0  0
    7.2335   -1.2088    2.2241 H   0  0  0  0  0  0  0  0  0  0  0  0
    8.5919   -1.9960   -3.5123 H   0  0  0  0  0  0  0  0  0  0  0  0
    9.2975   -0.6908   -4.4667 H   0  0  0  0  0  0  0  0  0  0  0  0
    6.8233   -0.4916   -4.3830 H   0  0  0  0  0  0  0  0  0  0  0  0
    8.2144    1.7630   -2.8149 H   0  0  0  0  0  0  0  0  0  0  0  0
    6.6646    1.8851   -3.6480 H   0  0  0  0  0  0  0  0  0  0  0  0
    8.1474    1.6047   -4.5772 H   0  0  0  0  0  0  0  0  0  0  0  0
  1  2  1  0  0  0  0
  1 28  1  0  0  0  0
  1 29  1  0  0  0  0
  1 30  1  0  0  0  0
  2  3  1  0  0  0  0
  2 31  1  0  0  0  0
  3  4  2  0  0  0  0
  3  5  1  0  0  0  0
  5  6  2  0  0  0  0
  5 22  1  0  0  0  0
  6  7  1  0  0  0  0
  6 32  1  0  0  0  0
  7  8  1  0  0  0  0
  7 26  1  0  0  0  0
  8  9  1  0  0  0  0
  8 21  2  0  0  0  0
  9 10  2  0  0  0  0
  9 24  1  0  0  0  0
 10 11  1  0  0  0  0
 10 18  1  0  0  0  0
 11 12  1  0  0  0  0
 11 17  1  0  0  0  0
 12 13  1  0  0  0  0
 12 33  1  0  0  0  0
 12 34  1  0  0  0  0
 13 14  1  0  0  0  0
 13 35  1  0  0  0  0
 13 36  1  0  0  0  0
 14 15  1  0  0  0  0
 14 16  1  0  0  0  0
 15 37  1  0  0  0  0
 15 38  1  0  0  0  0
 15 39  1  0  0  0  0
 16 17  1  0  0  0  0
 16 40  1  0  0  0  0
 16 41  1  0  0  0  0
 17 42  1  0  0  0  0
 17 43  1  0  0  0  0
 18 19  1  0  0  0  0
 18 20  2  0  0  0  0
 20 21  1  0  0  0  0
 20 44  1  0  0  0  0
 21 22  1  0  0  0  0
 22 23  2  0  0  0  0
 24 25  1  0  0  0  0
 25 26  1  0  0  0  0
 25 45  1  0  0  0  0
 25 46  1  0  0  0  0
 26 27  1  0  0  0  0
 26 47  1  6  0  0  0
 27 48  1  0  0  0  0
 27 49  1  0  0  0  0
 27 50  1  0  0  0  0
M  END
>  <Line_Number>
177


> <IC50>
2890

$$$$
