386829
 OpenBabel09302502333D

 58 62  0  0  0  0  0  0  0  0999 V2000
    1.1237    0.7131   -1.9088 C   0  0  0  0  0  0  0  0  0  0  0  0
    2.5505    0.7046   -1.8165 N   0  0  0  0  0  0  0  0  0  0  0  0
    3.2311   -0.2810   -1.1476 C   0  0  0  0  0  0  0  0  0  0  0  0
    2.6773   -1.1994   -0.5617 O   0  0  0  0  0  0  0  0  0  0  0  0
    4.7179   -0.1648   -1.1852 C   0  0  0  0  0  0  0  0  0  0  0  0
    5.4499   -0.8740   -0.3068 C   0  0  0  0  0  0  0  0  0  0  0  0
    6.8355   -0.8634   -0.2176 N   0  0  0  0  0  0  0  0  0  0  0  0
    7.4688   -1.7107    0.8161 C   0  0  0  0  0  0  0  0  0  0  0  0
    7.2361   -1.4304    2.2831 C   0  0  0  0  0  0  0  0  0  0  0  0
    8.6028   -1.2486    1.7050 C   0  0  0  0  0  0  0  0  0  0  0  0
    7.5831   -0.2137   -1.2320 C   0  0  0  0  0  0  0  0  0  0  0  0
    8.9718   -0.3364   -1.3409 C   0  0  0  0  0  0  0  0  0  0  0  0
    9.7167    0.3265   -2.3259 C   0  0  0  0  0  0  0  0  0  0  0  0
   11.0766    0.1145   -2.3874 N   0  0  0  0  0  0  0  0  0  0  0  0
   11.7818    0.2135   -3.6577 C   0  0  0  0  0  0  0  0  0  0  0  0
   12.7761   -0.9416   -3.7412 C   0  0  0  0  0  0  0  0  0  0  0  0
   13.6805   -1.0143   -2.5820 N   0  0  0  0  0  0  0  0  0  0  0  0
   15.0652   -1.1849   -2.6188 C   0  0  0  0  0  0  0  0  0  0  0  0
   15.7609   -1.1235   -1.6071 O   0  0  0  0  0  0  0  0  0  0  0  0
   15.7550   -1.4081   -3.9255 C   0  0  0  0  0  0  0  0  0  0  0  0
   17.0190   -0.8435   -4.1313 C   0  0  0  0  0  0  0  0  0  0  0  0
   17.6273   -0.9322   -5.3870 C   0  0  0  0  0  0  0  0  0  0  0  0
   16.9661   -1.5583   -6.4442 C   0  0  0  0  0  0  0  0  0  0  0  0
   15.7407   -2.1778   -6.2270 C   0  0  0  0  0  0  0  0  0  0  0  0
   15.1772   -2.1622   -4.9539 C   0  0  0  0  0  0  0  0  0  0  0  0
   12.9939   -0.9764   -1.2777 C   0  0  0  0  0  0  0  0  0  0  0  0
   11.9465    0.1545   -1.1976 C   0  0  0  0  0  0  0  0  0  0  0  0
    9.0031    1.1130   -3.2474 C   0  0  0  0  0  0  0  0  0  0  0  0
    9.6446    1.7785   -4.2217 F   0  0  0  0  0  0  0  0  0  0  0  0
    7.6238    1.2420   -3.1919 C   0  0  0  0  0  0  0  0  0  0  0  0
    6.9245    0.5826   -2.1826 C   0  0  0  0  0  0  0  0  0  0  0  0
    5.4530    0.6980   -2.1377 C   0  0  0  0  0  0  0  0  0  0  0  0
    4.8696    1.4769   -2.8857 O   0  0  0  0  0  0  0  0  0  0  0  0
    0.8053    1.6410   -2.4031 H   0  0  0  0  0  0  0  0  0  0  0  0
    0.6941    0.6592   -0.9049 H   0  0  0  0  0  0  0  0  0  0  0  0
    0.7957   -0.1501   -2.4925 H   0  0  0  0  0  0  0  0  0  0  0  0
    3.0916    1.3778   -2.3674 H   0  0  0  0  0  0  0  0  0  0  0  0
    4.9690   -1.5148    0.4234 H   0  0  0  0  0  0  0  0  0  0  0  0
    7.5047   -2.7551    0.5101 H   0  0  0  0  0  0  0  0  0  0  0  0
    7.0758   -2.2711    2.9453 H   0  0  0  0  0  0  0  0  0  0  0  0
    6.7010   -0.5301    2.5623 H   0  0  0  0  0  0  0  0  0  0  0  0
    9.3642   -1.9730    1.9667 H   0  0  0  0  0  0  0  0  0  0  0  0
    8.9728   -0.2347    1.6096 H   0  0  0  0  0  0  0  0  0  0  0  0
    9.4989   -1.0172   -0.6791 H   0  0  0  0  0  0  0  0  0  0  0  0
   12.3040    1.1744   -3.7279 H   0  0  0  0  0  0  0  0  0  0  0  0
   11.1177    0.1131   -4.5232 H   0  0  0  0  0  0  0  0  0  0  0  0
   13.3028   -0.7987   -4.6796 H   0  0  0  0  0  0  0  0  0  0  0  0
   12.2357   -1.8980   -3.7712 H   0  0  0  0  0  0  0  0  0  0  0  0
   17.5299   -0.3290   -3.3195 H   0  0  0  0  0  0  0  0  0  0  0  0
   18.6110   -0.4975   -5.5465 H   0  0  0  0  0  0  0  0  0  0  0  0
   17.4148   -1.5834   -7.4338 H   0  0  0  0  0  0  0  0  0  0  0  0
   15.2178   -2.6713   -7.0420 H   0  0  0  0  0  0  0  0  0  0  0  0
   14.2545   -2.7100   -4.7897 H   0  0  0  0  0  0  0  0  0  0  0  0
   13.7058   -0.8822   -0.4519 H   0  0  0  0  0  0  0  0  0  0  0  0
   12.4899   -1.9446   -1.1654 H   0  0  0  0  0  0  0  0  0  0  0  0
   12.4578    1.1251   -1.1736 H   0  0  0  0  0  0  0  0  0  0  0  0
   11.3897    0.0678   -0.2585 H   0  0  0  0  0  0  0  0  0  0  0  0
    7.1165    1.8496   -3.9339 H   0  0  0  0  0  0  0  0  0  0  0  0
  1  2  1  0  0  0  0
  1 34  1  0  0  0  0
  1 35  1  0  0  0  0
  1 36  1  0  0  0  0
  2  3  1  0  0  0  0
  2 37  1  0  0  0  0
  3  4  2  0  0  0  0
  3  5  1  0  0  0  0
  5  6  2  0  0  0  0
  5 32  1  0  0  0  0
  6  7  1  0  0  0  0
  6 38  1  0  0  0  0
  7  8  1  0  0  0  0
  7 11  1  0  0  0  0
  8  9  1  0  0  0  0
  8 10  1  0  0  0  0
  8 39  1  0  0  0  0
  9 10  1  0  0  0  0
  9 40  1  0  0  0  0
  9 41  1  0  0  0  0
 10 42  1  0  0  0  0
 10 43  1  0  0  0  0
 11 12  1  0  0  0  0
 11 31  2  0  0  0  0
 12 13  2  0  0  0  0
 12 44  1  0  0  0  0
 13 14  1  0  0  0  0
 13 28  1  0  0  0  0
 14 15  1  0  0  0  0
 14 27  1  0  0  0  0
 15 16  1  0  0  0  0
 15 45  1  0  0  0  0
 15 46  1  0  0  0  0
 16 17  1  0  0  0  0
 16 47  1  0  0  0  0
 16 48  1  0  0  0  0
 17 18  1  0  0  0  0
 17 26  1  0  0  0  0
 18 19  2  0  0  0  0
 18 20  1  0  0  0  0
 20 21  1  0  0  0  0
 20 25  2  0  0  0  0
 21 22  2  0  0  0  0
 21 49  1  0  0  0  0
 22 23  1  0  0  0  0
 22 50  1  0  0  0  0
 23 24  2  0  0  0  0
 23 51  1  0  0  0  0
 24 25  1  0  0  0  0
 24 52  1  0  0  0  0
 25 53  1  0  0  0  0
 26 27  1  0  0  0  0
 26 54  1  0  0  0  0
 26 55  1  0  0  0  0
 27 56  1  0  0  0  0
 27 57  1  0  0  0  0
 28 29  1  0  0  0  0
 28 30  2  0  0  0  0
 30 31  1  0  0  0  0
 30 58  1  0  0  0  0
 31 32  1  0  0  0  0
 32 33  2  0  0  0  0
M  END
>  <Line_Number>
178


> <IC50>
2495800

$$$$
