386837
 OpenBabel09302502333D

 90 95  0  0  0  0  0  0  0  0999 V2000
    6.5575    2.6721    4.2649 C   0  0  0  0  0  0  0  0  0  0  0  0
    7.4453    3.7866    4.2669 O   0  0  0  0  0  0  0  0  0  0  0  0
    7.2574    4.7379    3.2961 C   0  0  0  0  0  0  0  0  0  0  0  0
    6.0121    4.9242    2.6757 C   0  0  0  0  0  0  0  0  0  0  0  0
    5.7934    5.9470    1.7430 C   0  0  0  0  0  0  0  0  0  0  0  0
    4.4935    6.0992    1.0643 C   0  0  0  0  0  0  0  0  0  0  0  0
    3.3245    5.8119    1.6578 C   0  0  0  0  0  0  0  0  0  0  0  0
    2.0177    5.9613    0.9547 C   0  0  0  0  0  0  0  0  0  0  0  0
    1.9323    6.0104   -0.2647 O   0  0  0  0  0  0  0  0  0  0  0  0
    0.8037    5.9976    1.8154 C   0  0  0  0  0  0  0  0  0  0  0  0
    0.8577    6.5271    3.1066 C   0  0  0  0  0  0  0  0  0  0  0  0
   -0.2861    6.5537    3.9112 C   0  0  0  0  0  0  0  0  0  0  0  0
   -1.5117    6.0736    3.4401 C   0  0  0  0  0  0  0  0  0  0  0  0
   -2.6899    6.1091    4.2246 N   0  0  0  0  0  0  0  0  0  0  0  0
   -2.8655    6.8476    5.3904 C   0  0  0  0  0  0  0  0  0  0  0  0
   -2.0418    7.6246    5.8768 O   0  0  0  0  0  0  0  0  0  0  0  0
   -4.2293    6.6744    6.0754 C   0  0  0  0  0  0  0  0  0  0  0  0
   -4.2044    5.6244    7.1227 N   0  0  0  0  0  0  0  0  0  0  0  0
   -5.5305    5.5071    7.7902 C   0  0  0  0  0  0  0  0  0  0  0  0
   -5.9781    6.7504    8.5984 C   0  0  0  0  0  0  0  0  0  0  0  0
   -4.9456    7.2127    9.5376 N   0  0  0  0  0  0  0  0  0  0  0  0
   -5.1359    7.2503   10.9170 C   0  0  0  0  0  0  0  0  0  0  0  0
   -4.4402    8.2240   11.6658 C   0  0  0  0  0  0  0  0  0  0  0  0
   -4.4242    8.2152   13.0639 C   0  0  0  0  0  0  0  0  0  0  0  0
   -5.0639    7.1531   13.7306 C   0  0  0  0  0  0  0  0  0  0  0  0
   -5.9047    6.2854   13.0331 C   0  0  0  0  0  0  0  0  0  0  0  0
   -5.9515    6.3593   11.6397 C   0  0  0  0  0  0  0  0  0  0  0  0
   -6.7424    5.4820   11.0029 F   0  0  0  0  0  0  0  0  0  0  0  0
   -4.7663    6.9450   15.1801 C   0  0  0  0  0  0  0  0  0  0  0  0
   -5.2964    6.0575   15.8366 O   0  0  0  0  0  0  0  0  0  0  0  0
   -3.7738    7.8971   15.7856 C   0  0  0  0  0  0  0  0  0  0  0  0
   -2.3348    7.4889   15.9623 C   0  0  0  0  0  0  0  0  0  0  0  0
   -1.9377    6.3548   15.7370 O   0  0  0  0  0  0  0  0  0  0  0  0
   -1.5279    8.5217   16.4356 N   0  0  0  0  0  0  0  0  0  0  0  0
   -0.1279    8.3415   16.5502 N   0  0  0  0  0  0  0  0  0  0  0  0
   -3.9388    9.1243   15.2438 C   0  0  0  0  0  0  0  0  0  0  0  0
   -3.8392    9.2664   13.8410 N   0  0  0  0  0  0  0  0  0  0  0  0
   -2.6033    9.9255   13.3668 C   0  0  0  0  0  0  0  0  0  0  0  0
   -2.2526   11.3178   13.8354 C   0  0  0  0  0  0  0  0  0  0  0  0
   -2.6244   11.0825   12.4041 C   0  0  0  0  0  0  0  0  0  0  0  0
   -3.5394    7.1750    9.0639 C   0  0  0  0  0  0  0  0  0  0  0  0
   -3.2312    5.9244    8.2031 C   0  0  0  0  0  0  0  0  0  0  0  0
   -1.5648    5.5389    2.1475 C   0  0  0  0  0  0  0  0  0  0  0  0
   -0.4188    5.5138    1.3314 C   0  0  0  0  0  0  0  0  0  0  0  0
    6.8497    6.8047    1.4360 C   0  0  0  0  0  0  0  0  0  0  0  0
    8.0950    6.6615    2.0652 C   0  0  0  0  0  0  0  0  0  0  0  0
    9.1615    7.4890    1.7980 O   0  0  0  0  0  0  0  0  0  0  0  0
    8.8277    8.8399    1.4895 C   0  0  0  0  0  0  0  0  0  0  0  0
    8.3181    5.6006    2.9754 C   0  0  0  0  0  0  0  0  0  0  0  0
    9.5786    5.5542    3.5264 O   0  0  0  0  0  0  0  0  0  0  0  0
   10.1109    4.2642    3.8059 C   0  0  0  0  0  0  0  0  0  0  0  0
    6.8877    1.9753    5.0400 H   0  0  0  0  0  0  0  0  0  0  0  0
    6.5909    2.1514    3.3019 H   0  0  0  0  0  0  0  0  0  0  0  0
    5.5345    2.9683    4.5193 H   0  0  0  0  0  0  0  0  0  0  0  0
    5.1828    4.2734    2.9242 H   0  0  0  0  0  0  0  0  0  0  0  0
    4.5133    6.4749    0.0427 H   0  0  0  0  0  0  0  0  0  0  0  0
    3.2843    5.4582    2.6813 H   0  0  0  0  0  0  0  0  0  0  0  0
    1.7722    6.9467    3.5154 H   0  0  0  0  0  0  0  0  0  0  0  0
   -0.1715    6.9459    4.9127 H   0  0  0  0  0  0  0  0  0  0  0  0
   -3.4944    5.6119    3.8663 H   0  0  0  0  0  0  0  0  0  0  0  0
   -4.9793    6.4256    5.3147 H   0  0  0  0  0  0  0  0  0  0  0  0
   -4.5012    7.6597    6.4715 H   0  0  0  0  0  0  0  0  0  0  0  0
   -5.4891    4.6466    8.4726 H   0  0  0  0  0  0  0  0  0  0  0  0
   -6.2940    5.2550    7.0453 H   0  0  0  0  0  0  0  0  0  0  0  0
   -6.9385    6.5513    9.0831 H   0  0  0  0  0  0  0  0  0  0  0  0
   -6.1838    7.5736    7.9039 H   0  0  0  0  0  0  0  0  0  0  0  0
   -3.9142    9.0086   11.1293 H   0  0  0  0  0  0  0  0  0  0  0  0
   -6.4874    5.5280   13.5508 H   0  0  0  0  0  0  0  0  0  0  0  0
   -1.8831    9.4742   16.4911 H   0  0  0  0  0  0  0  0  0  0  0  0
    0.0481    7.3293   16.5743 H   0  0  0  0  0  0  0  0  0  0  0  0
    0.1615    8.6854   17.4699 H   0  0  0  0  0  0  0  0  0  0  0  0
   -4.9396    9.5352   15.4093 H   0  0  0  0  0  0  0  0  0  0  0  0
   -1.7718    9.2266   13.2788 H   0  0  0  0  0  0  0  0  0  0  0  0
   -1.2137   11.5250   14.0650 H   0  0  0  0  0  0  0  0  0  0  0  0
   -2.9626   11.8594   14.4489 H   0  0  0  0  0  0  0  0  0  0  0  0
   -1.8340   11.1433   11.6653 H   0  0  0  0  0  0  0  0  0  0  0  0
   -3.5840   11.4523   12.0630 H   0  0  0  0  0  0  0  0  0  0  0  0
   -2.8298    7.1608    9.9018 H   0  0  0  0  0  0  0  0  0  0  0  0
   -3.3379    8.0889    8.4952 H   0  0  0  0  0  0  0  0  0  0  0  0
   -3.2004    5.0492    8.8684 H   0  0  0  0  0  0  0  0  0  0  0  0
   -2.2132    5.9924    7.8038 H   0  0  0  0  0  0  0  0  0  0  0  0
   -2.4993    5.1567    1.7370 H   0  0  0  0  0  0  0  0  0  0  0  0
   -0.4798    5.1166    0.3190 H   0  0  0  0  0  0  0  0  0  0  0  0
    6.6948    7.5848    0.6939 H   0  0  0  0  0  0  0  0  0  0  0  0
    9.7417    9.4375    1.5669 H   0  0  0  0  0  0  0  0  0  0  0  0
    8.1003    9.2484    2.1999 H   0  0  0  0  0  0  0  0  0  0  0  0
    8.4639    8.9252    0.4622 H   0  0  0  0  0  0  0  0  0  0  0  0
   11.1955    4.3698    3.9206 H   0  0  0  0  0  0  0  0  0  0  0  0
    9.9339    3.5556    2.9878 H   0  0  0  0  0  0  0  0  0  0  0  0
    9.7361    3.8799    4.7571 H   0  0  0  0  0  0  0  0  0  0  0  0
  1  2  1  0  0  0  0
  1 52  1  0  0  0  0
  1 53  1  0  0  0  0
  1 54  1  0  0  0  0
  2  3  1  0  0  0  0
  3  4  1  0  0  0  0
  3 49  2  0  0  0  0
  4  5  2  0  0  0  0
  4 55  1  0  0  0  0
  5  6  1  0  0  0  0
  5 45  1  0  0  0  0
  6  7  2  0  0  0  0
  6 56  1  0  0  0  0
  7  8  1  0  0  0  0
  7 57  1  0  0  0  0
  8  9  2  0  0  0  0
  8 10  1  0  0  0  0
 10 11  1  0  0  0  0
 10 44  2  0  0  0  0
 11 12  2  0  0  0  0
 11 58  1  0  0  0  0
 12 13  1  0  0  0  0
 12 59  1  0  0  0  0
 13 14  1  0  0  0  0
 13 43  2  0  0  0  0
 14 15  1  0  0  0  0
 14 60  1  0  0  0  0
 15 16  2  0  0  0  0
 15 17  1  0  0  0  0
 17 18  1  0  0  0  0
 17 61  1  0  0  0  0
 17 62  1  0  0  0  0
 18 19  1  0  0  0  0
 18 42  1  0  0  0  0
 19 20  1  0  0  0  0
 19 63  1  0  0  0  0
 19 64  1  0  0  0  0
 20 21  1  0  0  0  0
 20 65  1  0  0  0  0
 20 66  1  0  0  0  0
 21 22  1  0  0  0  0
 21 41  1  0  0  0  0
 22 23  1  0  0  0  0
 22 27  2  0  0  0  0
 23 24  2  0  0  0  0
 23 67  1  0  0  0  0
 24 25  1  0  0  0  0
 24 37  1  0  0  0  0
 25 26  2  0  0  0  0
 25 29  1  0  0  0  0
 26 27  1  0  0  0  0
 26 68  1  0  0  0  0
 27 28  1  0  0  0  0
 29 30  2  0  0  0  0
 29 31  1  0  0  0  0
 31 32  1  0  0  0  0
 31 36  2  0  0  0  0
 32 33  2  0  0  0  0
 32 34  1  0  0  0  0
 34 35  1  0  0  0  0
 34 69  1  0  0  0  0
 35 70  1  0  0  0  0
 35 71  1  0  0  0  0
 36 37  1  0  0  0  0
 36 72  1  0  0  0  0
 37 38  1  0  0  0  0
 38 39  1  0  0  0  0
 38 40  1  0  0  0  0
 38 73  1  0  0  0  0
 39 40  1  0  0  0  0
 39 74  1  0  0  0  0
 39 75  1  0  0  0  0
 40 76  1  0  0  0  0
 40 77  1  0  0  0  0
 41 42  1  0  0  0  0
 41 78  1  0  0  0  0
 41 79  1  0  0  0  0
 42 80  1  0  0  0  0
 42 81  1  0  0  0  0
 43 44  1  0  0  0  0
 43 82  1  0  0  0  0
 44 83  1  0  0  0  0
 45 46  2  0  0  0  0
 45 84  1  0  0  0  0
 46 47  1  0  0  0  0
 46 49  1  0  0  0  0
 47 48  1  0  0  0  0
 48 85  1  0  0  0  0
 48 86  1  0  0  0  0
 48 87  1  0  0  0  0
 49 50  1  0  0  0  0
 50 51  1  0  0  0  0
 51 88  1  0  0  0  0
 51 89  1  0  0  0  0
 51 90  1  0  0  0  0
M  END
>  <Line_Number>
179


> <IC50>
912010

$$$$
