12958458.0
 OpenBabel09302502333D

 21 21  0  0  0  0  0  0  0  0999 V2000
    0.9368    0.2505   -0.0159 C   0  0  0  0  0  0  0  0  0  0  0  0
    2.4513    0.0992   -0.0287 C   0  0  0  0  0  0  0  0  0  0  0  0
    2.9664   -0.1432   -1.4243 C   0  0  0  0  0  0  0  0  0  0  0  0
    3.3304    0.9423   -2.2430 C   0  0  0  0  0  0  0  0  0  0  0  0
    3.7623    0.7408   -3.5608 C   0  0  0  0  0  0  0  0  0  0  0  0
    3.8258   -0.5518   -4.0659 C   0  0  0  0  0  0  0  0  0  0  0  0
    4.2239   -0.8124   -5.3477 O   0  0  0  0  0  0  0  0  0  0  0  0
    3.4723   -1.6317   -3.2656 C   0  0  0  0  0  0  0  0  0  0  0  0
    3.5275   -2.9089   -3.7572 O   0  0  0  0  0  0  0  0  0  0  0  0
    3.0450   -1.4316   -1.9572 C   0  0  0  0  0  0  0  0  0  0  0  0
    2.6933   -2.5171   -1.2039 O   0  0  0  0  0  0  0  0  0  0  0  0
    0.5794    0.4073    1.0069 H   0  0  0  0  0  0  0  0  0  0  0  0
    0.4434   -0.6410   -0.4154 H   0  0  0  0  0  0  0  0  0  0  0  0
    0.6210    1.1074   -0.6207 H   0  0  0  0  0  0  0  0  0  0  0  0
    2.7512   -0.7219    0.6335 H   0  0  0  0  0  0  0  0  0  0  0  0
    2.9165    1.0016    0.3864 H   0  0  0  0  0  0  0  0  0  0  0  0
    3.2701    1.9573   -1.8543 H   0  0  0  0  0  0  0  0  0  0  0  0
    4.0327    1.5999   -4.1666 H   0  0  0  0  0  0  0  0  0  0  0  0
    4.4115    0.0372   -5.7830 H   0  0  0  0  0  0  0  0  0  0  0  0
    3.8375   -2.7934   -4.6791 H   0  0  0  0  0  0  0  0  0  0  0  0
    2.8372   -3.2818   -1.7965 H   0  0  0  0  0  0  0  0  0  0  0  0
  1  2  1  0  0  0  0
  1 12  1  0  0  0  0
  1 13  1  0  0  0  0
  1 14  1  0  0  0  0
  2  3  1  0  0  0  0
  2 15  1  0  0  0  0
  2 16  1  0  0  0  0
  3  4  1  0  0  0  0
  3 10  2  0  0  0  0
  4  5  2  0  0  0  0
  4 17  1  0  0  0  0
  5  6  1  0  0  0  0
  5 18  1  0  0  0  0
  6  7  1  0  0  0  0
  6  8  2  0  0  0  0
  7 19  1  0  0  0  0
  8  9  1  0  0  0  0
  8 10  1  0  0  0  0
  9 20  1  0  0  0  0
 10 11  1  0  0  0  0
 11 21  1  0  0  0  0
M  END
>  <Line_Number>
17


> <IC50>
34000

$$$$
