386826
 OpenBabel09302502333D

 77 82  0  0  0  0  0  0  0  0999 V2000
    2.3339    1.5132   -1.1835 O   0  0  0  0  0  0  0  0  0  0  0  0
    3.1123    0.6531   -1.6067 C   0  0  0  0  0  0  0  0  0  0  0  0
    3.0386   -0.7974   -1.1099 C   0  0  0  0  0  0  0  0  0  0  0  0
    2.0126   -1.5786   -1.8362 N   0  0  0  0  0  0  0  0  0  0  0  0
    0.6542   -0.9900   -1.6629 C   0  0  0  0  0  0  0  0  0  0  0  0
    0.1229   -1.0326   -0.2167 C   0  0  0  0  0  0  0  0  0  0  0  0
    0.1290   -2.4289    0.2215 N   0  0  0  0  0  0  0  0  0  0  0  0
   -0.9109   -2.9105    0.9841 C   0  0  0  0  0  0  0  0  0  0  0  0
   -1.3257   -4.2388    0.8008 C   0  0  0  0  0  0  0  0  0  0  0  0
   -2.4736   -4.7417    1.4057 C   0  0  0  0  0  0  0  0  0  0  0  0
   -3.1733   -3.8750    2.2650 C   0  0  0  0  0  0  0  0  0  0  0  0
   -2.7692   -2.5674    2.5082 C   0  0  0  0  0  0  0  0  0  0  0  0
   -1.6556   -2.0977    1.8547 C   0  0  0  0  0  0  0  0  0  0  0  0
   -1.3106   -0.8170    2.0645 F   0  0  0  0  0  0  0  0  0  0  0  0
   -4.3981   -4.3372    2.9088 C   0  0  0  0  0  0  0  0  0  0  0  0
   -5.0085   -3.6023    3.6869 O   0  0  0  0  0  0  0  0  0  0  0  0
   -4.8781   -5.6847    2.5681 C   0  0  0  0  0  0  0  0  0  0  0  0
   -6.1686   -6.1962    3.2276 C   0  0  0  0  0  0  0  0  0  0  0  0
   -6.5487   -7.3194    2.9884 O   0  0  0  0  0  0  0  0  0  0  0  0
   -6.8515   -5.3331    4.1420 N   0  0  0  0  0  0  0  0  0  0  0  0
   -8.0517   -5.7525    4.7392 O   0  0  0  0  0  0  0  0  0  0  0  0
   -4.1673   -6.4406    1.7072 C   0  0  0  0  0  0  0  0  0  0  0  0
   -2.9637   -6.0527    1.1439 N   0  0  0  0  0  0  0  0  0  0  0  0
   -2.2470   -6.9415    0.2002 C   0  0  0  0  0  0  0  0  0  0  0  0
   -2.3053   -8.4459    0.3115 C   0  0  0  0  0  0  0  0  0  0  0  0
   -1.0338   -7.7512    0.6626 C   0  0  0  0  0  0  0  0  0  0  0  0
    1.4096   -3.1311    0.1255 C   0  0  0  0  0  0  0  0  0  0  0  0
    1.9686   -2.9736   -1.3123 C   0  0  0  0  0  0  0  0  0  0  0  0
    4.1390    0.8870   -2.5113 N   0  0  0  0  0  0  0  0  0  0  0  0
    4.4261    2.1985   -2.9322 C   0  0  0  0  0  0  0  0  0  0  0  0
    5.7160    2.6956   -2.7445 C   0  0  0  0  0  0  0  0  0  0  0  0
    5.9721    4.0493   -2.9754 C   0  0  0  0  0  0  0  0  0  0  0  0
    4.9618    4.8819   -3.4689 C   0  0  0  0  0  0  0  0  0  0  0  0
    5.2647    6.3232   -3.6497 C   0  0  0  0  0  0  0  0  0  0  0  0
    6.4062    6.6975   -3.8944 O   0  0  0  0  0  0  0  0  0  0  0  0
    4.1424    7.2738   -3.4631 C   0  0  0  0  0  0  0  0  0  0  0  0
    4.2487    8.5506   -3.8575 C   0  0  0  0  0  0  0  0  0  0  0  0
    3.0954    9.4555   -3.7727 C   0  0  0  0  0  0  0  0  0  0  0  0
    2.1227    9.3634   -2.7287 C   0  0  0  0  0  0  0  0  0  0  0  0
    0.9122   10.0159   -2.8294 C   0  0  0  0  0  0  0  0  0  0  0  0
    0.7519   11.0334   -3.7171 C   0  0  0  0  0  0  0  0  0  0  0  0
    1.8196   11.3147   -4.5644 C   0  0  0  0  0  0  0  0  0  0  0  0
    2.9246   10.4874   -4.6769 C   0  0  0  0  0  0  0  0  0  0  0  0
    3.7067    4.3470   -3.7789 C   0  0  0  0  0  0  0  0  0  0  0  0
    3.4326    3.0117   -3.4829 C   0  0  0  0  0  0  0  0  0  0  0  0
    2.8705   -0.7568   -0.0296 H   0  0  0  0  0  0  0  0  0  0  0  0
    4.0157   -1.2693   -1.2530 H   0  0  0  0  0  0  0  0  0  0  0  0
   -0.0391   -1.5623   -2.2967 H   0  0  0  0  0  0  0  0  0  0  0  0
    0.6029    0.0309   -2.0511 H   0  0  0  0  0  0  0  0  0  0  0  0
   -0.8878   -0.6078   -0.2269 H   0  0  0  0  0  0  0  0  0  0  0  0
    0.7310   -0.4304    0.4675 H   0  0  0  0  0  0  0  0  0  0  0  0
   -0.7820   -4.8595    0.0962 H   0  0  0  0  0  0  0  0  0  0  0  0
   -3.3286   -1.9048    3.1617 H   0  0  0  0  0  0  0  0  0  0  0  0
   -6.5581   -4.3674    4.3272 H   0  0  0  0  0  0  0  0  0  0  0  0
   -8.2024   -6.6673    4.4520 H   0  0  0  0  0  0  0  0  0  0  0  0
   -4.5165   -7.4697    1.5112 H   0  0  0  0  0  0  0  0  0  0  0  0
   -2.2241   -6.5407   -0.8109 H   0  0  0  0  0  0  0  0  0  0  0  0
   -2.3510   -9.0500   -0.5736 H   0  0  0  0  0  0  0  0  0  0  0  0
   -2.9706   -9.1339    0.8082 H   0  0  0  0  0  0  0  0  0  0  0  0
   -0.1651   -7.8019    0.0607 H   0  0  0  0  0  0  0  0  0  0  0  0
   -0.4230   -7.6777    1.5507 H   0  0  0  0  0  0  0  0  0  0  0  0
    1.3263   -4.1990    0.3597 H   0  0  0  0  0  0  0  0  0  0  0  0
    2.1025   -2.7091    0.8626 H   0  0  0  0  0  0  0  0  0  0  0  0
    1.3251   -3.5586   -1.9847 H   0  0  0  0  0  0  0  0  0  0  0  0
    2.9599   -3.4362   -1.3757 H   0  0  0  0  0  0  0  0  0  0  0  0
    4.9204    0.2468   -2.4567 H   0  0  0  0  0  0  0  0  0  0  0  0
    6.5064    2.0724   -2.3379 H   0  0  0  0  0  0  0  0  0  0  0  0
    6.9501    4.4641   -2.7369 H   0  0  0  0  0  0  0  0  0  0  0  0
    3.2322    6.8867   -3.0239 H   0  0  0  0  0  0  0  0  0  0  0  0
    5.1564    8.9225   -4.3256 H   0  0  0  0  0  0  0  0  0  0  0  0
    2.2497    8.6352   -1.9302 H   0  0  0  0  0  0  0  0  0  0  0  0
    0.1281    9.8056   -2.1054 H   0  0  0  0  0  0  0  0  0  0  0  0
   -0.1515   11.6334   -3.7405 H   0  0  0  0  0  0  0  0  0  0  0  0
    1.7209   12.1475   -5.2608 H   0  0  0  0  0  0  0  0  0  0  0  0
    3.6624   10.6765   -5.4520 H   0  0  0  0  0  0  0  0  0  0  0  0
    2.9281    4.9499   -4.2381 H   0  0  0  0  0  0  0  0  0  0  0  0
    2.4425    2.6111   -3.6888 H   0  0  0  0  0  0  0  0  0  0  0  0
  1  2  2  0  0  0  0
  2  3  1  0  0  0  0
  2 29  1  0  0  0  0
  3  4  1  0  0  0  0
  3 46  1  0  0  0  0
  3 47  1  0  0  0  0
  4  5  1  0  0  0  0
  4 28  1  0  0  0  0
  5  6  1  0  0  0  0
  5 48  1  0  0  0  0
  5 49  1  0  0  0  0
  6  7  1  0  0  0  0
  6 50  1  0  0  0  0
  6 51  1  0  0  0  0
  7  8  1  0  0  0  0
  7 27  1  0  0  0  0
  8  9  1  0  0  0  0
  8 13  2  0  0  0  0
  9 10  2  0  0  0  0
  9 52  1  0  0  0  0
 10 11  1  0  0  0  0
 10 23  1  0  0  0  0
 11 12  2  0  0  0  0
 11 15  1  0  0  0  0
 12 13  1  0  0  0  0
 12 53  1  0  0  0  0
 13 14  1  0  0  0  0
 15 16  2  0  0  0  0
 15 17  1  0  0  0  0
 17 18  1  0  0  0  0
 17 22  2  0  0  0  0
 18 19  2  0  0  0  0
 18 20  1  0  0  0  0
 20 21  1  0  0  0  0
 20 54  1  0  0  0  0
 21 55  1  0  0  0  0
 22 23  1  0  0  0  0
 22 56  1  0  0  0  0
 23 24  1  0  0  0  0
 24 25  1  0  0  0  0
 24 26  1  0  0  0  0
 24 57  1  0  0  0  0
 25 26  1  0  0  0  0
 25 58  1  0  0  0  0
 25 59  1  0  0  0  0
 26 60  1  0  0  0  0
 26 61  1  0  0  0  0
 27 28  1  0  0  0  0
 27 62  1  0  0  0  0
 27 63  1  0  0  0  0
 28 64  1  0  0  0  0
 28 65  1  0  0  0  0
 29 30  1  0  0  0  0
 29 66  1  0  0  0  0
 30 31  1  0  0  0  0
 30 45  2  0  0  0  0
 31 32  2  0  0  0  0
 31 67  1  0  0  0  0
 32 33  1  0  0  0  0
 32 68  1  0  0  0  0
 33 34  1  0  0  0  0
 33 44  2  0  0  0  0
 34 35  2  0  0  0  0
 34 36  1  0  0  0  0
 36 37  2  0  0  0  0
 36 69  1  0  0  0  0
 37 38  1  0  0  0  0
 37 70  1  0  0  0  0
 38 39  1  0  0  0  0
 38 43  2  0  0  0  0
 39 40  2  0  0  0  0
 39 71  1  0  0  0  0
 40 41  1  0  0  0  0
 40 72  1  0  0  0  0
 41 42  2  0  0  0  0
 41 73  1  0  0  0  0
 42 43  1  0  0  0  0
 42 74  1  0  0  0  0
 43 75  1  0  0  0  0
 44 45  1  0  0  0  0
 44 76  1  0  0  0  0
 45 77  1  0  0  0  0
M  END
>  <Line_Number>
180


> <IC50>
19300

$$$$
