386838
 OpenBabel09302502333D

 48 51  0  0  1  0  0  0  0  0999 V2000
    3.0943    0.5016   -1.3657 C   0  0  0  0  0  0  0  0  0  0  0  0
    2.7431    0.2295    0.1010 C   0  0  1  0  0  0  0  0  0  0  0  0
    2.4450    1.5186    0.8606 C   0  0  0  0  0  0  0  0  0  0  0  0
    1.3351    2.1986    0.2758 O   0  0  0  0  0  0  0  0  0  0  0  0
    0.2052    1.4124    0.1586 C   0  0  0  0  0  0  0  0  0  0  0  0
   -1.0355    2.0566   -0.0507 C   0  0  0  0  0  0  0  0  0  0  0  0
   -1.1997    3.4328   -0.2753 N   0  0  0  0  0  0  0  0  0  0  0  0
   -0.1552    4.3878    0.1321 C   0  0  0  0  0  0  0  0  0  0  0  0
   -0.7227    5.8284    0.1081 C   0  0  0  0  0  0  0  0  0  0  0  0
   -1.3050    6.1920   -1.2062 N   0  0  0  0  0  0  0  0  0  0  0  0
   -1.8629    7.5363   -1.1869 C   0  0  0  0  0  0  0  0  0  0  0  0
   -2.3543    5.2045   -1.5470 C   0  0  0  0  0  0  0  0  0  0  0  0
   -1.7854    3.7741   -1.5988 C   0  0  0  0  0  0  0  0  0  0  0  0
   -2.1833    1.2297   -0.0433 C   0  0  0  0  0  0  0  0  0  0  0  0
   -3.4066    1.7815   -0.1346 F   0  0  0  0  0  0  0  0  0  0  0  0
   -2.1137   -0.1573    0.0467 C   0  0  0  0  0  0  0  0  0  0  0  0
   -0.8650   -0.7658    0.1212 C   0  0  0  0  0  0  0  0  0  0  0  0
   -0.7678   -2.2466    0.1072 C   0  0  0  0  0  0  0  0  0  0  0  0
   -1.7835   -2.9394    0.0566 O   0  0  0  0  0  0  0  0  0  0  0  0
    0.5823   -2.8639    0.1396 C   0  0  0  0  0  0  0  0  0  0  0  0
    0.8374   -4.3224    0.1314 C   0  0  0  0  0  0  0  0  0  0  0  0
    1.9771   -4.8002    0.1457 O   0  0  0  0  0  0  0  0  0  0  0  0
   -0.2722   -5.1201    0.1161 N   0  0  0  0  0  0  0  0  0  0  0  0
   -0.0751   -6.5164    0.1254 O   0  0  0  0  0  0  0  0  0  0  0  0
    1.6336   -2.0312    0.1679 C   0  0  0  0  0  0  0  0  0  0  0  0
    1.5693   -0.6532    0.1962 N   0  0  0  0  0  0  0  0  0  0  0  0
    0.3124   -0.0004    0.1738 C   0  0  0  0  0  0  0  0  0  0  0  0
    3.9749    1.1493   -1.4353 H   0  0  0  0  0  0  0  0  0  0  0  0
    2.2774    0.9921   -1.9065 H   0  0  0  0  0  0  0  0  0  0  0  0
    3.3181   -0.4314   -1.8932 H   0  0  0  0  0  0  0  0  0  0  0  0
    3.6040   -0.2552    0.5796 H   0  0  0  0  0  0  0  0  0  0  0  0
    3.3032    2.1979    0.8152 H   0  0  0  0  0  0  0  0  0  0  0  0
    2.2398    1.3263    1.9223 H   0  0  0  0  0  0  0  0  0  0  0  0
    0.7111    4.3383   -0.5384 H   0  0  0  0  0  0  0  0  0  0  0  0
    0.1705    4.1742    1.1581 H   0  0  0  0  0  0  0  0  0  0  0  0
    0.0911    6.5201    0.3575 H   0  0  0  0  0  0  0  0  0  0  0  0
   -1.4837    5.9144    0.8963 H   0  0  0  0  0  0  0  0  0  0  0  0
   -1.0814    8.2738   -0.9744 H   0  0  0  0  0  0  0  0  0  0  0  0
   -2.6620    7.6487   -0.4463 H   0  0  0  0  0  0  0  0  0  0  0  0
   -2.2714    7.7883   -2.1729 H   0  0  0  0  0  0  0  0  0  0  0  0
   -2.7864    5.4454   -2.5283 H   0  0  0  0  0  0  0  0  0  0  0  0
   -3.1675    5.2380   -0.8108 H   0  0  0  0  0  0  0  0  0  0  0  0
   -1.0228    3.7105   -2.3856 H   0  0  0  0  0  0  0  0  0  0  0  0
   -2.5971    3.0962   -1.8839 H   0  0  0  0  0  0  0  0  0  0  0  0
   -3.0307   -0.7352    0.0174 H   0  0  0  0  0  0  0  0  0  0  0  0
   -1.2300   -4.7638    0.1266 H   0  0  0  0  0  0  0  0  0  0  0  0
    0.9036   -6.5877    0.1474 H   0  0  0  0  0  0  0  0  0  0  0  0
    2.6525   -2.4163    0.1765 H   0  0  0  0  0  0  0  0  0  0  0  0
  1  2  1  0  0  0  0
  1 28  1  0  0  0  0
  1 29  1  0  0  0  0
  1 30  1  0  0  0  0
  2  3  1  0  0  0  0
  2 26  1  0  0  0  0
  2 31  1  1  0  0  0
  3  4  1  0  0  0  0
  3 32  1  0  0  0  0
  3 33  1  0  0  0  0
  4  5  1  0  0  0  0
  5  6  1  0  0  0  0
  5 27  2  0  0  0  0
  6  7  1  0  0  0  0
  6 14  2  0  0  0  0
  7  8  1  0  0  0  0
  7 13  1  0  0  0  0
  8  9  1  0  0  0  0
  8 34  1  0  0  0  0
  8 35  1  0  0  0  0
  9 10  1  0  0  0  0
  9 36  1  0  0  0  0
  9 37  1  0  0  0  0
 10 11  1  0  0  0  0
 10 12  1  0  0  0  0
 11 38  1  0  0  0  0
 11 39  1  0  0  0  0
 11 40  1  0  0  0  0
 12 13  1  0  0  0  0
 12 41  1  0  0  0  0
 12 42  1  0  0  0  0
 13 43  1  0  0  0  0
 13 44  1  0  0  0  0
 14 15  1  0  0  0  0
 14 16  1  0  0  0  0
 16 17  2  0  0  0  0
 16 45  1  0  0  0  0
 17 18  1  0  0  0  0
 17 27  1  0  0  0  0
 18 19  2  0  0  0  0
 18 20  1  0  0  0  0
 20 21  1  0  0  0  0
 20 25  2  0  0  0  0
 21 22  2  0  0  0  0
 21 23  1  0  0  0  0
 23 24  1  0  0  0  0
 23 46  1  0  0  0  0
 24 47  1  0  0  0  0
 25 26  1  0  0  0  0
 25 48  1  0  0  0  0
 26 27  1  0  0  0  0
M  END
>  <Line_Number>
181


> <IC50>
2200

$$$$
