386830
 OpenBabel09302502333D

 70 74  0  0  0  0  0  0  0  0999 V2000
    1.3058   -1.6465   -3.1425 C   0  0  0  0  0  0  0  0  0  0  0  0
    2.6845   -1.7669   -2.7417 N   0  0  0  0  0  0  0  0  0  0  0  0
    3.1810   -2.8960   -2.1450 C   0  0  0  0  0  0  0  0  0  0  0  0
    2.5036   -3.8866   -1.9048 O   0  0  0  0  0  0  0  0  0  0  0  0
    4.6301   -2.8285   -1.7849 C   0  0  0  0  0  0  0  0  0  0  0  0
    5.2208   -3.8922   -1.2175 C   0  0  0  0  0  0  0  0  0  0  0  0
    6.5515   -3.9747   -0.8291 N   0  0  0  0  0  0  0  0  0  0  0  0
    7.0641   -5.2502   -0.2768 C   0  0  0  0  0  0  0  0  0  0  0  0
    6.2747   -6.1095    0.6807 C   0  0  0  0  0  0  0  0  0  0  0  0
    7.4782   -5.3676    1.1723 C   0  0  0  0  0  0  0  0  0  0  0  0
    7.4356   -2.9225   -1.2024 C   0  0  0  0  0  0  0  0  0  0  0  0
    8.8251   -3.0110   -1.0449 C   0  0  0  0  0  0  0  0  0  0  0  0
    9.7106   -2.0047   -1.4868 C   0  0  0  0  0  0  0  0  0  0  0  0
   11.0743   -2.1560   -1.3490 N   0  0  0  0  0  0  0  0  0  0  0  0
   11.6393   -2.9756   -0.2868 C   0  0  0  0  0  0  0  0  0  0  0  0
   12.7643   -2.2009    0.3902 C   0  0  0  0  0  0  0  0  0  0  0  0
   13.7894   -1.7299   -0.5572 N   0  0  0  0  0  0  0  0  0  0  0  0
   15.1740   -1.8923   -0.4462 C   0  0  0  0  0  0  0  0  0  0  0  0
   15.9483   -1.5239   -1.3234 O   0  0  0  0  0  0  0  0  0  0  0  0
   15.7637   -2.6067    0.7358 C   0  0  0  0  0  0  0  0  0  0  0  0
   16.8893   -3.4163    0.5436 C   0  0  0  0  0  0  0  0  0  0  0  0
   17.3938   -4.2098    1.5887 C   0  0  0  0  0  0  0  0  0  0  0  0
   18.4947   -5.0096    1.4511 O   0  0  0  0  0  0  0  0  0  0  0  0
   19.1831   -5.0528    0.2137 C   0  0  0  0  0  0  0  0  0  0  0  0
   16.7437   -4.2200    2.8451 C   0  0  0  0  0  0  0  0  0  0  0  0
   17.0849   -4.9971    3.9169 O   0  0  0  0  0  0  0  0  0  0  0  0
   18.1916   -5.8779    3.8800 C   0  0  0  0  0  0  0  0  0  0  0  0
   15.6481   -3.3597    3.0487 C   0  0  0  0  0  0  0  0  0  0  0  0
   14.8450   -3.2360    4.1573 O   0  0  0  0  0  0  0  0  0  0  0  0
   15.1287   -4.0253    5.3039 C   0  0  0  0  0  0  0  0  0  0  0  0
   15.2345   -2.5072    2.0205 C   0  0  0  0  0  0  0  0  0  0  0  0
   13.2242   -0.9756   -1.6960 C   0  0  0  0  0  0  0  0  0  0  0  0
   12.0496   -1.7235   -2.3694 C   0  0  0  0  0  0  0  0  0  0  0  0
    9.1350   -0.8473   -2.0344 C   0  0  0  0  0  0  0  0  0  0  0  0
    9.9066    0.1851   -2.4092 F   0  0  0  0  0  0  0  0  0  0  0  0
    7.7627   -0.7037   -2.1682 C   0  0  0  0  0  0  0  0  0  0  0  0
    6.9258   -1.7534   -1.7829 C   0  0  0  0  0  0  0  0  0  0  0  0
    5.4771   -1.6364   -2.0354 C   0  0  0  0  0  0  0  0  0  0  0  0
    5.0131   -0.5889   -2.4783 O   0  0  0  0  0  0  0  0  0  0  0  0
    1.1514   -0.6503   -3.5700 H   0  0  0  0  0  0  0  0  0  0  0  0
    0.6597   -1.7828   -2.2733 H   0  0  0  0  0  0  0  0  0  0  0  0
    1.0817   -2.4108   -3.8905 H   0  0  0  0  0  0  0  0  0  0  0  0
    3.3074   -0.9711   -2.8888 H   0  0  0  0  0  0  0  0  0  0  0  0
    4.6490   -4.7978   -1.0256 H   0  0  0  0  0  0  0  0  0  0  0  0
    7.6840   -5.7823   -0.9973 H   0  0  0  0  0  0  0  0  0  0  0  0
    6.3477   -7.1850    0.5673 H   0  0  0  0  0  0  0  0  0  0  0  0
    5.3051   -5.7681    1.0212 H   0  0  0  0  0  0  0  0  0  0  0  0
    8.3582   -5.9529    1.4143 H   0  0  0  0  0  0  0  0  0  0  0  0
    7.3127   -4.5232    1.8310 H   0  0  0  0  0  0  0  0  0  0  0  0
    9.2372   -3.9142   -0.6078 H   0  0  0  0  0  0  0  0  0  0  0  0
   12.0248   -3.9120   -0.7058 H   0  0  0  0  0  0  0  0  0  0  0  0
   10.9184   -3.2242    0.4992 H   0  0  0  0  0  0  0  0  0  0  0  0
   13.1517   -2.8849    1.1329 H   0  0  0  0  0  0  0  0  0  0  0  0
   12.3702   -1.3065    0.8908 H   0  0  0  0  0  0  0  0  0  0  0  0
   17.3568   -3.4108   -0.4370 H   0  0  0  0  0  0  0  0  0  0  0  0
   20.0060   -5.7654    0.3296 H   0  0  0  0  0  0  0  0  0  0  0  0
   19.6157   -4.0787   -0.0314 H   0  0  0  0  0  0  0  0  0  0  0  0
   18.5333   -5.4224   -0.5843 H   0  0  0  0  0  0  0  0  0  0  0  0
   18.2451   -6.3669    4.8571 H   0  0  0  0  0  0  0  0  0  0  0  0
   19.1287   -5.3308    3.7428 H   0  0  0  0  0  0  0  0  0  0  0  0
   18.0498   -6.6666    3.1356 H   0  0  0  0  0  0  0  0  0  0  0  0
   14.3888   -3.7844    6.0721 H   0  0  0  0  0  0  0  0  0  0  0  0
   16.1112   -3.7716    5.7130 H   0  0  0  0  0  0  0  0  0  0  0  0
   15.0277   -5.0959    5.0918 H   0  0  0  0  0  0  0  0  0  0  0  0
   14.4453   -1.7936    2.2414 H   0  0  0  0  0  0  0  0  0  0  0  0
   13.9940   -0.7452   -2.4426 H   0  0  0  0  0  0  0  0  0  0  0  0
   12.8605   -0.0209   -1.2947 H   0  0  0  0  0  0  0  0  0  0  0  0
   12.4387   -2.6238   -2.8637 H   0  0  0  0  0  0  0  0  0  0  0  0
   11.6073   -1.1078   -3.1579 H   0  0  0  0  0  0  0  0  0  0  0  0
    7.3616    0.2163   -2.5817 H   0  0  0  0  0  0  0  0  0  0  0  0
  1  2  1  0  0  0  0
  1 40  1  0  0  0  0
  1 41  1  0  0  0  0
  1 42  1  0  0  0  0
  2  3  1  0  0  0  0
  2 43  1  0  0  0  0
  3  4  2  0  0  0  0
  3  5  1  0  0  0  0
  5  6  2  0  0  0  0
  5 38  1  0  0  0  0
  6  7  1  0  0  0  0
  6 44  1  0  0  0  0
  7  8  1  0  0  0  0
  7 11  1  0  0  0  0
  8  9  1  0  0  0  0
  8 10  1  0  0  0  0
  8 45  1  0  0  0  0
  9 10  1  0  0  0  0
  9 46  1  0  0  0  0
  9 47  1  0  0  0  0
 10 48  1  0  0  0  0
 10 49  1  0  0  0  0
 11 12  1  0  0  0  0
 11 37  2  0  0  0  0
 12 13  2  0  0  0  0
 12 50  1  0  0  0  0
 13 14  1  0  0  0  0
 13 34  1  0  0  0  0
 14 15  1  0  0  0  0
 14 33  1  0  0  0  0
 15 16  1  0  0  0  0
 15 51  1  0  0  0  0
 15 52  1  0  0  0  0
 16 17  1  0  0  0  0
 16 53  1  0  0  0  0
 16 54  1  0  0  0  0
 17 18  1  0  0  0  0
 17 32  1  0  0  0  0
 18 19  2  0  0  0  0
 18 20  1  0  0  0  0
 20 21  1  0  0  0  0
 20 31  2  0  0  0  0
 21 22  2  0  0  0  0
 21 55  1  0  0  0  0
 22 23  1  0  0  0  0
 22 25  1  0  0  0  0
 23 24  1  0  0  0  0
 24 56  1  0  0  0  0
 24 57  1  0  0  0  0
 24 58  1  0  0  0  0
 25 26  1  0  0  0  0
 25 28  2  0  0  0  0
 26 27  1  0  0  0  0
 27 59  1  0  0  0  0
 27 60  1  0  0  0  0
 27 61  1  0  0  0  0
 28 29  1  0  0  0  0
 28 31  1  0  0  0  0
 29 30  1  0  0  0  0
 30 62  1  0  0  0  0
 30 63  1  0  0  0  0
 30 64  1  0  0  0  0
 31 65  1  0  0  0  0
 32 33  1  0  0  0  0
 32 66  1  0  0  0  0
 32 67  1  0  0  0  0
 33 68  1  0  0  0  0
 33 69  1  0  0  0  0
 34 35  1  0  0  0  0
 34 36  2  0  0  0  0
 36 37  1  0  0  0  0
 36 70  1  0  0  0  0
 37 38  1  0  0  0  0
 38 39  2  0  0  0  0
M  END
>  <Line_Number>
182


> <IC50>
2920

$$$$
