386833
 OpenBabel09302502333D

 50 53  0  0  0  0  0  0  0  0999 V2000
    0.8076   -1.0300    0.0738 C   0  0  0  0  0  0  0  0  0  0  0  0
    1.9136   -0.0765   -0.2935 C   0  0  0  0  0  0  0  0  0  0  0  0
    2.3871    0.6798    0.5534 O   0  0  0  0  0  0  0  0  0  0  0  0
    2.3731   -0.1218   -1.5933 N   0  0  0  0  0  0  0  0  0  0  0  0
    1.8120   -0.9554   -2.6704 C   0  0  0  0  0  0  0  0  0  0  0  0
    2.9085   -1.7336   -3.4241 C   0  0  0  0  0  0  0  0  0  0  0  0
    3.9440   -0.7854   -3.8510 N   0  0  0  0  0  0  0  0  0  0  0  0
    4.5664   -0.8985   -5.0789 C   0  0  0  0  0  0  0  0  0  0  0  0
    5.0353    0.2664   -5.7111 C   0  0  0  0  0  0  0  0  0  0  0  0
    5.6418    0.2582   -6.9726 C   0  0  0  0  0  0  0  0  0  0  0  0
    5.7292   -0.9728   -7.6412 C   0  0  0  0  0  0  0  0  0  0  0  0
    5.2704   -2.1516   -7.0524 C   0  0  0  0  0  0  0  0  0  0  0  0
    4.7034   -2.1037   -5.7855 C   0  0  0  0  0  0  0  0  0  0  0  0
    4.2925   -3.2615   -5.2438 F   0  0  0  0  0  0  0  0  0  0  0  0
    6.2896   -1.0208   -9.0091 C   0  0  0  0  0  0  0  0  0  0  0  0
    6.4093   -2.0963   -9.5942 O   0  0  0  0  0  0  0  0  0  0  0  0
    6.6668    0.2587   -9.6577 C   0  0  0  0  0  0  0  0  0  0  0  0
    7.1187    0.3656  -11.0713 C   0  0  0  0  0  0  0  0  0  0  0  0
    7.3793    1.4492  -11.5980 O   0  0  0  0  0  0  0  0  0  0  0  0
    7.2098   -0.8378  -11.7516 N   0  0  0  0  0  0  0  0  0  0  0  0
    7.6629   -0.8679  -13.0908 N   0  0  0  0  0  0  0  0  0  0  0  0
    6.5721    1.3712   -8.9082 C   0  0  0  0  0  0  0  0  0  0  0  0
    6.1513    1.4321   -7.5880 N   0  0  0  0  0  0  0  0  0  0  0  0
    6.1104    2.7568   -6.9303 C   0  0  0  0  0  0  0  0  0  0  0  0
    7.3837    3.5432   -6.7178 C   0  0  0  0  0  0  0  0  0  0  0  0
    6.6342    3.0222   -5.5364 C   0  0  0  0  0  0  0  0  0  0  0  0
    4.5634   -0.0159   -2.7544 C   0  0  0  0  0  0  0  0  0  0  0  0
    3.4675    0.7668   -2.0093 C   0  0  0  0  0  0  0  0  0  0  0  0
    0.5083   -0.8575    1.1096 H   0  0  0  0  0  0  0  0  0  0  0  0
    1.1638   -2.0610   -0.0160 H   0  0  0  0  0  0  0  0  0  0  0  0
   -0.0662   -0.8674   -0.5641 H   0  0  0  0  0  0  0  0  0  0  0  0
    1.3083   -0.2688   -3.3628 H   0  0  0  0  0  0  0  0  0  0  0  0
    1.0618   -1.6564   -2.3010 H   0  0  0  0  0  0  0  0  0  0  0  0
    2.4320   -2.2354   -4.2732 H   0  0  0  0  0  0  0  0  0  0  0  0
    3.3510   -2.4967   -2.7725 H   0  0  0  0  0  0  0  0  0  0  0  0
    4.8646    1.2135   -5.2100 H   0  0  0  0  0  0  0  0  0  0  0  0
    5.3423   -3.1056   -7.5664 H   0  0  0  0  0  0  0  0  0  0  0  0
    7.0371   -1.7205  -11.2577 H   0  0  0  0  0  0  0  0  0  0  0  0
    8.0077    0.0723  -13.3135 H   0  0  0  0  0  0  0  0  0  0  0  0
    6.8459   -0.9927  -13.6956 H   0  0  0  0  0  0  0  0  0  0  0  0
    6.8357    2.3423   -9.3237 H   0  0  0  0  0  0  0  0  0  0  0  0
    5.2239    3.3193   -7.2185 H   0  0  0  0  0  0  0  0  0  0  0  0
    7.3640    4.6107   -6.8978 H   0  0  0  0  0  0  0  0  0  0  0  0
    8.3314    3.0680   -6.9442 H   0  0  0  0  0  0  0  0  0  0  0  0
    6.0938    3.7346   -4.9226 H   0  0  0  0  0  0  0  0  0  0  0  0
    7.0884    2.2139   -4.9756 H   0  0  0  0  0  0  0  0  0  0  0  0
    5.3371    0.6791   -3.0976 H   0  0  0  0  0  0  0  0  0  0  0  0
    5.0511   -0.7160   -2.0636 H   0  0  0  0  0  0  0  0  0  0  0  0
    3.0320    1.5213   -2.6766 H   0  0  0  0  0  0  0  0  0  0  0  0
    3.9033    1.2922   -1.1546 H   0  0  0  0  0  0  0  0  0  0  0  0
  1  2  1  0  0  0  0
  1 29  1  0  0  0  0
  1 30  1  0  0  0  0
  1 31  1  0  0  0  0
  2  3  2  0  0  0  0
  2  4  1  0  0  0  0
  4  5  1  0  0  0  0
  4 28  1  0  0  0  0
  5  6  1  0  0  0  0
  5 32  1  0  0  0  0
  5 33  1  0  0  0  0
  6  7  1  0  0  0  0
  6 34  1  0  0  0  0
  6 35  1  0  0  0  0
  7  8  1  0  0  0  0
  7 27  1  0  0  0  0
  8  9  1  0  0  0  0
  8 13  2  0  0  0  0
  9 10  2  0  0  0  0
  9 36  1  0  0  0  0
 10 11  1  0  0  0  0
 10 23  1  0  0  0  0
 11 12  2  0  0  0  0
 11 15  1  0  0  0  0
 12 13  1  0  0  0  0
 12 37  1  0  0  0  0
 13 14  1  0  0  0  0
 15 16  2  0  0  0  0
 15 17  1  0  0  0  0
 17 18  1  0  0  0  0
 17 22  2  0  0  0  0
 18 19  2  0  0  0  0
 18 20  1  0  0  0  0
 20 21  1  0  0  0  0
 20 38  1  0  0  0  0
 21 39  1  0  0  0  0
 21 40  1  0  0  0  0
 22 23  1  0  0  0  0
 22 41  1  0  0  0  0
 23 24  1  0  0  0  0
 24 25  1  0  0  0  0
 24 26  1  0  0  0  0
 24 42  1  0  0  0  0
 25 26  1  0  0  0  0
 25 43  1  0  0  0  0
 25 44  1  0  0  0  0
 26 45  1  0  0  0  0
 26 46  1  0  0  0  0
 27 28  1  0  0  0  0
 27 47  1  0  0  0  0
 27 48  1  0  0  0  0
 28 49  1  0  0  0  0
 28 50  1  0  0  0  0
M  END
>  <Line_Number>
183


> <IC50>
1220

$$$$
