386834
 OpenBabel09302502333D

 57 61  0  0  0  0  0  0  0  0999 V2000
    1.0877   -1.5973    1.3179 N   0  0  0  0  0  0  0  0  0  0  0  0
    2.4947   -1.5794    1.2565 N   0  0  0  0  0  0  0  0  0  0  0  0
    3.1789   -0.3812    1.1055 C   0  0  0  0  0  0  0  0  0  0  0  0
    2.6220    0.7012    0.9327 O   0  0  0  0  0  0  0  0  0  0  0  0
    4.6629   -0.5122    1.1454 C   0  0  0  0  0  0  0  0  0  0  0  0
    5.4230    0.5399    0.7859 C   0  0  0  0  0  0  0  0  0  0  0  0
    6.8059    0.5795    0.7932 N   0  0  0  0  0  0  0  0  0  0  0  0
    7.5359    1.7189    0.1987 C   0  0  0  0  0  0  0  0  0  0  0  0
    7.9962    2.8431    1.0978 C   0  0  0  0  0  0  0  0  0  0  0  0
    7.0336    3.1194   -0.0158 C   0  0  0  0  0  0  0  0  0  0  0  0
    7.5296   -0.5490    1.2789 C   0  0  0  0  0  0  0  0  0  0  0  0
    8.9278   -0.5411    1.4011 C   0  0  0  0  0  0  0  0  0  0  0  0
    9.6540   -1.6422    1.8794 C   0  0  0  0  0  0  0  0  0  0  0  0
   11.0152   -1.5288    2.0742 N   0  0  0  0  0  0  0  0  0  0  0  0
   11.6990   -2.3224    3.0927 C   0  0  0  0  0  0  0  0  0  0  0  0
   12.6731   -1.4206    3.8628 C   0  0  0  0  0  0  0  0  0  0  0  0
   13.5834   -0.6646    2.9887 N   0  0  0  0  0  0  0  0  0  0  0  0
   14.9555   -0.4930    3.1723 C   0  0  0  0  0  0  0  0  0  0  0  0
   15.6595    0.0954    2.3520 O   0  0  0  0  0  0  0  0  0  0  0  0
   15.6325   -1.0775    4.3653 C   0  0  0  0  0  0  0  0  0  0  0  0
   16.8806   -1.6875    4.1890 C   0  0  0  0  0  0  0  0  0  0  0  0
   17.5023   -2.3342    5.2598 C   0  0  0  0  0  0  0  0  0  0  0  0
   16.8736   -2.3872    6.5037 C   0  0  0  0  0  0  0  0  0  0  0  0
   15.6618   -1.7292    6.7004 C   0  0  0  0  0  0  0  0  0  0  0  0
   15.0711   -1.0312    5.6469 C   0  0  0  0  0  0  0  0  0  0  0  0
   12.9173    0.0443    1.8827 C   0  0  0  0  0  0  0  0  0  0  0  0
   11.9186   -0.8524    1.1215 C   0  0  0  0  0  0  0  0  0  0  0  0
    8.9114   -2.7908    2.2120 C   0  0  0  0  0  0  0  0  0  0  0  0
    9.5283   -3.9016    2.6465 F   0  0  0  0  0  0  0  0  0  0  0  0
    7.5271   -2.8384    2.1014 C   0  0  0  0  0  0  0  0  0  0  0  0
    6.8414   -1.7157    1.6407 C   0  0  0  0  0  0  0  0  0  0  0  0
    5.3680   -1.7533    1.5432 C   0  0  0  0  0  0  0  0  0  0  0  0
    4.7592   -2.7929    1.7829 O   0  0  0  0  0  0  0  0  0  0  0  0
    0.7478   -2.3943    0.7770 H   0  0  0  0  0  0  0  0  0  0  0  0
    0.7492   -0.7600    0.8284 H   0  0  0  0  0  0  0  0  0  0  0  0
    3.0223   -2.4312    1.4853 H   0  0  0  0  0  0  0  0  0  0  0  0
    4.9517    1.4642    0.4619 H   0  0  0  0  0  0  0  0  0  0  0  0
    8.2260    1.3787   -0.5736 H   0  0  0  0  0  0  0  0  0  0  0  0
    9.0192    3.1837    0.9984 H   0  0  0  0  0  0  0  0  0  0  0  0
    7.6093    2.8831    2.1100 H   0  0  0  0  0  0  0  0  0  0  0  0
    7.4131    3.6536   -0.8807 H   0  0  0  0  0  0  0  0  0  0  0  0
    6.0188    3.3835    0.2457 H   0  0  0  0  0  0  0  0  0  0  0  0
    9.4664    0.3754    1.1882 H   0  0  0  0  0  0  0  0  0  0  0  0
   12.2418   -3.1485    2.6192 H   0  0  0  0  0  0  0  0  0  0  0  0
   11.0134   -2.7396    3.8366 H   0  0  0  0  0  0  0  0  0  0  0  0
   13.2079   -2.0672    4.5547 H   0  0  0  0  0  0  0  0  0  0  0  0
   12.1096   -0.6748    4.4395 H   0  0  0  0  0  0  0  0  0  0  0  0
   17.3666   -1.6673    3.2154 H   0  0  0  0  0  0  0  0  0  0  0  0
   18.4706   -2.8081    5.1199 H   0  0  0  0  0  0  0  0  0  0  0  0
   17.3361   -2.9282    7.3254 H   0  0  0  0  0  0  0  0  0  0  0  0
   15.1736   -1.7612    7.6711 H   0  0  0  0  0  0  0  0  0  0  0  0
   14.1519   -0.4827    5.8307 H   0  0  0  0  0  0  0  0  0  0  0  0
   13.6462    0.4583    1.1788 H   0  0  0  0  0  0  0  0  0  0  0  0
   12.3802    0.8896    2.3312 H   0  0  0  0  0  0  0  0  0  0  0  0
   12.4714   -1.6205    0.5653 H   0  0  0  0  0  0  0  0  0  0  0  0
   11.3859   -0.2517    0.3776 H   0  0  0  0  0  0  0  0  0  0  0  0
    7.0027   -3.7452    2.3870 H   0  0  0  0  0  0  0  0  0  0  0  0
  1  2  1  0  0  0  0
  1 34  1  0  0  0  0
  1 35  1  0  0  0  0
  2  3  1  0  0  0  0
  2 36  1  0  0  0  0
  3  4  2  0  0  0  0
  3  5  1  0  0  0  0
  5  6  2  0  0  0  0
  5 32  1  0  0  0  0
  6  7  1  0  0  0  0
  6 37  1  0  0  0  0
  7  8  1  0  0  0  0
  7 11  1  0  0  0  0
  8  9  1  0  0  0  0
  8 10  1  0  0  0  0
  8 38  1  0  0  0  0
  9 10  1  0  0  0  0
  9 39  1  0  0  0  0
  9 40  1  0  0  0  0
 10 41  1  0  0  0  0
 10 42  1  0  0  0  0
 11 12  1  0  0  0  0
 11 31  2  0  0  0  0
 12 13  2  0  0  0  0
 12 43  1  0  0  0  0
 13 14  1  0  0  0  0
 13 28  1  0  0  0  0
 14 15  1  0  0  0  0
 14 27  1  0  0  0  0
 15 16  1  0  0  0  0
 15 44  1  0  0  0  0
 15 45  1  0  0  0  0
 16 17  1  0  0  0  0
 16 46  1  0  0  0  0
 16 47  1  0  0  0  0
 17 18  1  0  0  0  0
 17 26  1  0  0  0  0
 18 19  2  0  0  0  0
 18 20  1  0  0  0  0
 20 21  1  0  0  0  0
 20 25  2  0  0  0  0
 21 22  2  0  0  0  0
 21 48  1  0  0  0  0
 22 23  1  0  0  0  0
 22 49  1  0  0  0  0
 23 24  2  0  0  0  0
 23 50  1  0  0  0  0
 24 25  1  0  0  0  0
 24 51  1  0  0  0  0
 25 52  1  0  0  0  0
 26 27  1  0  0  0  0
 26 53  1  0  0  0  0
 26 54  1  0  0  0  0
 27 55  1  0  0  0  0
 27 56  1  0  0  0  0
 28 29  1  0  0  0  0
 28 30  2  0  0  0  0
 30 31  1  0  0  0  0
 30 57  1  0  0  0  0
 31 32  1  0  0  0  0
 32 33  2  0  0  0  0
M  END
>  <Line_Number>
184


> <IC50>
250440

$$$$
