386824
 OpenBabel09302502333D

 56 60  0  0  0  0  0  0  0  0999 V2000
    1.0424   -0.7523   -0.1345 O   0  0  0  0  0  0  0  0  0  0  0  0
    2.1322   -0.1892   -0.0509 C   0  0  0  0  0  0  0  0  0  0  0  0
    2.7408    0.3791   -1.1357 N   0  0  0  0  0  0  0  0  0  0  0  0
    2.0480    0.3389   -2.3634 O   0  0  0  0  0  0  0  0  0  0  0  0
    2.8953   -0.1019    1.2192 C   0  0  0  0  0  0  0  0  0  0  0  0
    2.5212   -0.8698    2.2525 C   0  0  0  0  0  0  0  0  0  0  0  0
    3.1819   -0.9900    3.4594 N   0  0  0  0  0  0  0  0  0  0  0  0
    2.6534   -1.8769    4.5180 C   0  0  0  0  0  0  0  0  0  0  0  0
    3.1506   -3.3003    4.6167 C   0  0  0  0  0  0  0  0  0  0  0  0
    1.7077   -3.0339    4.3206 C   0  0  0  0  0  0  0  0  0  0  0  0
    4.3522   -0.2036    3.6886 C   0  0  0  0  0  0  0  0  0  0  0  0
    5.1085   -0.3035    4.8662 C   0  0  0  0  0  0  0  0  0  0  0  0
    6.2669    0.4629    5.0921 C   0  0  0  0  0  0  0  0  0  0  0  0
    7.0409    0.2213    6.2106 N   0  0  0  0  0  0  0  0  0  0  0  0
    8.4774    0.5003    6.1974 C   0  0  0  0  0  0  0  0  0  0  0  0
    9.2135   -0.6454    6.8986 C   0  0  0  0  0  0  0  0  0  0  0  0
    8.6809   -0.9482    8.2359 N   0  0  0  0  0  0  0  0  0  0  0  0
    9.4332   -1.2193    9.3795 C   0  0  0  0  0  0  0  0  0  0  0  0
    8.9150   -1.3871   10.4828 O   0  0  0  0  0  0  0  0  0  0  0  0
   10.9220   -1.2631    9.3021 C   0  0  0  0  0  0  0  0  0  0  0  0
   11.6623   -0.6766   10.3356 C   0  0  0  0  0  0  0  0  0  0  0  0
   13.0547   -0.6053   10.2458 C   0  0  0  0  0  0  0  0  0  0  0  0
   13.7089   -1.1036    9.1189 C   0  0  0  0  0  0  0  0  0  0  0  0
   12.9827   -1.7442    8.1182 C   0  0  0  0  0  0  0  0  0  0  0  0
   11.5991   -1.8715    8.2382 C   0  0  0  0  0  0  0  0  0  0  0  0
    7.2161   -1.0952    8.2930 C   0  0  0  0  0  0  0  0  0  0  0  0
    6.4730    0.0410    7.5581 C   0  0  0  0  0  0  0  0  0  0  0  0
    6.6211    1.3848    4.0894 C   0  0  0  0  0  0  0  0  0  0  0  0
    7.6831    2.1937    4.2443 F   0  0  0  0  0  0  0  0  0  0  0  0
    5.9076    1.5009    2.9036 C   0  0  0  0  0  0  0  0  0  0  0  0
    4.7921    0.6911    2.7000 C   0  0  0  0  0  0  0  0  0  0  0  0
    4.0897    0.7540    1.4022 C   0  0  0  0  0  0  0  0  0  0  0  0
    4.5017    1.4814    0.4990 O   0  0  0  0  0  0  0  0  0  0  0  0
    3.5898    0.9458   -1.0798 H   0  0  0  0  0  0  0  0  0  0  0  0
    1.2079   -0.1027   -2.1135 H   0  0  0  0  0  0  0  0  0  0  0  0
    1.6405   -1.5002    2.1623 H   0  0  0  0  0  0  0  0  0  0  0  0
    2.5006   -1.3348    5.4504 H   0  0  0  0  0  0  0  0  0  0  0  0
    3.4081   -3.6880    5.5945 H   0  0  0  0  0  0  0  0  0  0  0  0
    3.7588   -3.6918    3.8086 H   0  0  0  0  0  0  0  0  0  0  0  0
    0.9857   -3.2249    5.1082 H   0  0  0  0  0  0  0  0  0  0  0  0
    1.3456   -3.2949    3.3353 H   0  0  0  0  0  0  0  0  0  0  0  0
    4.8414   -1.0558    5.6042 H   0  0  0  0  0  0  0  0  0  0  0  0
    8.6790    1.4499    6.7065 H   0  0  0  0  0  0  0  0  0  0  0  0
    8.8892    0.5559    5.1839 H   0  0  0  0  0  0  0  0  0  0  0  0
   10.2640   -0.3638    6.9292 H   0  0  0  0  0  0  0  0  0  0  0  0
    9.1095   -1.5660    6.3087 H   0  0  0  0  0  0  0  0  0  0  0  0
   11.1558   -0.2661   11.2068 H   0  0  0  0  0  0  0  0  0  0  0  0
   13.6281   -0.1482   11.0484 H   0  0  0  0  0  0  0  0  0  0  0  0
   14.7878   -1.0068    9.0276 H   0  0  0  0  0  0  0  0  0  0  0  0
   13.4896   -2.1409    7.2423 H   0  0  0  0  0  0  0  0  0  0  0  0
   11.0546   -2.4173    7.4736 H   0  0  0  0  0  0  0  0  0  0  0  0
    6.8633   -1.1560    9.3274 H   0  0  0  0  0  0  0  0  0  0  0  0
    6.9813   -2.0531    7.8115 H   0  0  0  0  0  0  0  0  0  0  0  0
    6.5980    0.9774    8.1166 H   0  0  0  0  0  0  0  0  0  0  0  0
    5.4003   -0.1771    7.5443 H   0  0  0  0  0  0  0  0  0  0  0  0
    6.2404    2.2078    2.1519 H   0  0  0  0  0  0  0  0  0  0  0  0
  1  2  2  0  0  0  0
  2  3  1  0  0  0  0
  2  5  1  0  0  0  0
  3  4  1  0  0  0  0
  3 34  1  0  0  0  0
  4 35  1  0  0  0  0
  5  6  2  0  0  0  0
  5 32  1  0  0  0  0
  6  7  1  0  0  0  0
  6 36  1  0  0  0  0
  7  8  1  0  0  0  0
  7 11  1  0  0  0  0
  8  9  1  0  0  0  0
  8 10  1  0  0  0  0
  8 37  1  0  0  0  0
  9 10  1  0  0  0  0
  9 38  1  0  0  0  0
  9 39  1  0  0  0  0
 10 40  1  0  0  0  0
 10 41  1  0  0  0  0
 11 12  1  0  0  0  0
 11 31  2  0  0  0  0
 12 13  2  0  0  0  0
 12 42  1  0  0  0  0
 13 14  1  0  0  0  0
 13 28  1  0  0  0  0
 14 15  1  0  0  0  0
 14 27  1  0  0  0  0
 15 16  1  0  0  0  0
 15 43  1  0  0  0  0
 15 44  1  0  0  0  0
 16 17  1  0  0  0  0
 16 45  1  0  0  0  0
 16 46  1  0  0  0  0
 17 18  1  0  0  0  0
 17 26  1  0  0  0  0
 18 19  2  0  0  0  0
 18 20  1  0  0  0  0
 20 21  1  0  0  0  0
 20 25  2  0  0  0  0
 21 22  2  0  0  0  0
 21 47  1  0  0  0  0
 22 23  1  0  0  0  0
 22 48  1  0  0  0  0
 23 24  2  0  0  0  0
 23 49  1  0  0  0  0
 24 25  1  0  0  0  0
 24 50  1  0  0  0  0
 25 51  1  0  0  0  0
 26 27  1  0  0  0  0
 26 52  1  0  0  0  0
 26 53  1  0  0  0  0
 27 54  1  0  0  0  0
 27 55  1  0  0  0  0
 28 29  1  0  0  0  0
 28 30  2  0  0  0  0
 30 31  1  0  0  0  0
 30 56  1  0  0  0  0
 31 32  1  0  0  0  0
 32 33  2  0  0  0  0
M  END
>  <Line_Number>
185


> <IC50>
18930

$$$$
