386822
 OpenBabel09302502333D

 10  9  0  0  0  0  0  0  0  0999 V2000
    1.0612   -0.0502   -0.0834 C   0  0  0  0  0  0  0  0  0  0  0  0
    2.5618   -0.0803   -0.0629 C   0  0  0  0  0  0  0  0  0  0  0  0
    3.2156   -0.9216    0.5480 O   0  0  0  0  0  0  0  0  0  0  0  0
    3.1496    0.9195   -0.7915 N   0  0  0  0  0  0  0  0  0  0  0  0
    4.5603    0.9474   -0.8080 O   0  0  0  0  0  0  0  0  0  0  0  0
    0.6701   -0.8775    0.5155 H   0  0  0  0  0  0  0  0  0  0  0  0
    0.7012   -0.1569   -1.1102 H   0  0  0  0  0  0  0  0  0  0  0  0
    0.7028    0.8921    0.3397 H   0  0  0  0  0  0  0  0  0  0  0  0
    2.6602    1.6430   -1.3054 H   0  0  0  0  0  0  0  0  0  0  0  0
    4.7905    0.1740   -0.2468 H   0  0  0  0  0  0  0  0  0  0  0  0
  1  2  1  0  0  0  0
  1  6  1  0  0  0  0
  1  7  1  0  0  0  0
  1  8  1  0  0  0  0
  2  3  2  0  0  0  0
  2  4  1  0  0  0  0
  4  5  1  0  0  0  0
  4  9  1  0  0  0  0
  5 10  1  0  0  0  0
M  END
>  <Line_Number>
186


> <IC50>
120000

$$$$
