386832
 OpenBabel09302502333D

 91 96  0  0  0  0  0  0  0  0999 V2000
   15.0956   -9.4979   -5.8076 C   0  0  0  0  0  0  0  0  0  0  0  0
   15.0954   -8.3659   -4.8564 N   0  0  0  0  0  0  0  0  0  0  0  0
   15.1841   -7.0459   -5.3675 C   0  0  0  0  0  0  0  0  0  0  0  0
   15.2646   -6.7801   -6.5792 O   0  0  0  0  0  0  0  0  0  0  0  0
   15.2058   -5.8873   -4.3816 C   0  0  0  0  0  0  0  0  0  0  0  0
   15.2793   -4.6218   -4.7865 C   0  0  0  0  0  0  0  0  0  0  0  0
   15.2851   -3.5306   -3.9287 N   0  0  0  0  0  0  0  0  0  0  0  0
   15.3529   -2.1504   -4.4032 C   0  0  0  0  0  0  0  0  0  0  0  0
   14.2527   -1.1633   -4.1046 C   0  0  0  0  0  0  0  0  0  0  0  0
   14.5068   -1.6181   -5.5279 C   0  0  0  0  0  0  0  0  0  0  0  0
   15.2867   -3.7737   -2.5309 C   0  0  0  0  0  0  0  0  0  0  0  0
   15.2851   -2.7484   -1.5806 C   0  0  0  0  0  0  0  0  0  0  0  0
   15.0756   -2.9810   -0.2135 C   0  0  0  0  0  0  0  0  0  0  0  0
   14.8388   -1.9205    0.6290 N   0  0  0  0  0  0  0  0  0  0  0  0
   13.9667   -2.0470    1.8022 C   0  0  0  0  0  0  0  0  0  0  0  0
   12.9760   -0.8578    1.8005 C   0  0  0  0  0  0  0  0  0  0  0  0
   13.6266    0.4851    1.7666 N   0  0  0  0  0  0  0  0  0  0  0  0
   14.3783    0.7521    3.0233 C   0  0  0  0  0  0  0  0  0  0  0  0
   15.0606    2.1377    3.0005 C   0  0  0  0  0  0  0  0  0  0  0  0
   16.2097    2.2544    2.5664 O   0  0  0  0  0  0  0  0  0  0  0  0
   14.3202    3.1997    3.5146 N   0  0  0  0  0  0  0  0  0  0  0  0
   14.9103    4.4838    3.5764 C   0  0  0  0  0  0  0  0  0  0  0  0
   15.3492    5.1038    2.4050 C   0  0  0  0  0  0  0  0  0  0  0  0
   16.0946    6.2872    2.4625 C   0  0  0  0  0  0  0  0  0  0  0  0
   16.3928    6.8791    3.6962 C   0  0  0  0  0  0  0  0  0  0  0  0
   17.2680    8.0906    3.6963 C   0  0  0  0  0  0  0  0  0  0  0  0
   17.3108    8.8325    2.7260 O   0  0  0  0  0  0  0  0  0  0  0  0
   18.1537    8.3017    4.8883 C   0  0  0  0  0  0  0  0  0  0  0  0
   18.7242    9.4965    5.1312 C   0  0  0  0  0  0  0  0  0  0  0  0
   19.5334    9.7514    6.3528 C   0  0  0  0  0  0  0  0  0  0  0  0
   20.5578   10.6873    6.3362 C   0  0  0  0  0  0  0  0  0  0  0  0
   21.3532   10.9335    7.4433 C   0  0  0  0  0  0  0  0  0  0  0  0
   22.3737   11.8284    7.4445 O   0  0  0  0  0  0  0  0  0  0  0  0
   22.6701   12.5687    6.2727 C   0  0  0  0  0  0  0  0  0  0  0  0
   21.0700   10.2499    8.6278 C   0  0  0  0  0  0  0  0  0  0  0  0
   21.7804   10.4233    9.7735 O   0  0  0  0  0  0  0  0  0  0  0  0
   22.8731   11.3317    9.7689 C   0  0  0  0  0  0  0  0  0  0  0  0
   20.0037    9.3428    8.6914 C   0  0  0  0  0  0  0  0  0  0  0  0
   19.7297    8.6362    9.8183 O   0  0  0  0  0  0  0  0  0  0  0  0
   18.3727    8.2520   10.0733 C   0  0  0  0  0  0  0  0  0  0  0  0
   19.2752    9.0849    7.5365 C   0  0  0  0  0  0  0  0  0  0  0  0
   15.8511    6.3118    4.8623 C   0  0  0  0  0  0  0  0  0  0  0  0
   15.1164    5.1132    4.8040 C   0  0  0  0  0  0  0  0  0  0  0  0
   14.5412    0.5084    0.5862 C   0  0  0  0  0  0  0  0  0  0  0  0
   15.5601   -0.6503    0.5271 C   0  0  0  0  0  0  0  0  0  0  0  0
   15.0350   -4.3117    0.2179 C   0  0  0  0  0  0  0  0  0  0  0  0
   14.8364   -4.6058    1.5096 F   0  0  0  0  0  0  0  0  0  0  0  0
   15.1862   -5.3621   -0.6591 C   0  0  0  0  0  0  0  0  0  0  0  0
   15.2496   -5.0796   -2.0088 C   0  0  0  0  0  0  0  0  0  0  0  0
   15.1946   -6.1952   -2.9497 C   0  0  0  0  0  0  0  0  0  0  0  0
   15.1583   -7.3556   -2.6170 O   0  0  0  0  0  0  0  0  0  0  0  0
   15.0153  -10.4305   -5.2464 H   0  0  0  0  0  0  0  0  0  0  0  0
   16.0288   -9.4781   -6.3766 H   0  0  0  0  0  0  0  0  0  0  0  0
   14.2465   -9.3896   -6.4876 H   0  0  0  0  0  0  0  0  0  0  0  0
   15.0070   -8.5762   -3.8913 H   0  0  0  0  0  0  0  0  0  0  0  0
   15.2741   -4.3470   -5.8392 H   0  0  0  0  0  0  0  0  0  0  0  0
   16.3801   -1.7878   -4.4581 H   0  0  0  0  0  0  0  0  0  0  0  0
   14.5412   -0.1511   -3.8402 H   0  0  0  0  0  0  0  0  0  0  0  0
   13.3565   -1.5102   -3.6048 H   0  0  0  0  0  0  0  0  0  0  0  0
   14.9648   -0.8978   -6.2010 H   0  0  0  0  0  0  0  0  0  0  0  0
   13.7571   -2.2339   -6.0065 H   0  0  0  0  0  0  0  0  0  0  0  0
   15.3564   -1.7166   -1.9039 H   0  0  0  0  0  0  0  0  0  0  0  0
   14.5807   -2.0388    2.7078 H   0  0  0  0  0  0  0  0  0  0  0  0
   13.3877   -2.9772    1.8155 H   0  0  0  0  0  0  0  0  0  0  0  0
   12.2874   -0.9471    2.6482 H   0  0  0  0  0  0  0  0  0  0  0  0
   12.3438   -0.9413    0.9021 H   0  0  0  0  0  0  0  0  0  0  0  0
   15.1709    0.0117    3.1843 H   0  0  0  0  0  0  0  0  0  0  0  0
   13.7188    0.6934    3.8967 H   0  0  0  0  0  0  0  0  0  0  0  0
   13.6468    2.9591    4.2284 H   0  0  0  0  0  0  0  0  0  0  0  0
   15.1289    4.6577    1.4387 H   0  0  0  0  0  0  0  0  0  0  0  0
   16.4762    6.7152    1.5382 H   0  0  0  0  0  0  0  0  0  0  0  0
   18.3251    7.4583    5.5513 H   0  0  0  0  0  0  0  0  0  0  0  0
   18.5558   10.3438    4.4699 H   0  0  0  0  0  0  0  0  0  0  0  0
   20.7360   11.2218    5.4065 H   0  0  0  0  0  0  0  0  0  0  0  0
   23.5225   13.2197    6.4886 H   0  0  0  0  0  0  0  0  0  0  0  0
   21.8274   13.2067    5.9872 H   0  0  0  0  0  0  0  0  0  0  0  0
   22.9584   11.9055    5.4506 H   0  0  0  0  0  0  0  0  0  0  0  0
   23.2852   11.3226   10.7854 H   0  0  0  0  0  0  0  0  0  0  0  0
   22.5503   12.3652    9.6071 H   0  0  0  0  0  0  0  0  0  0  0  0
   23.6894   10.9953    9.1206 H   0  0  0  0  0  0  0  0  0  0  0  0
   18.3917    7.6731   11.0045 H   0  0  0  0  0  0  0  0  0  0  0  0
   17.9678    7.5713    9.3219 H   0  0  0  0  0  0  0  0  0  0  0  0
   17.7388    9.1212   10.2653 H   0  0  0  0  0  0  0  0  0  0  0  0
   18.4774    8.3544    7.5649 H   0  0  0  0  0  0  0  0  0  0  0  0
   16.0014    6.7700    5.8364 H   0  0  0  0  0  0  0  0  0  0  0  0
   14.8024    4.6453    5.7329 H   0  0  0  0  0  0  0  0  0  0  0  0
   15.0618    1.4665    0.5128 H   0  0  0  0  0  0  0  0  0  0  0  0
   13.9173    0.4535   -0.3158 H   0  0  0  0  0  0  0  0  0  0  0  0
   16.2773   -0.5921    1.3521 H   0  0  0  0  0  0  0  0  0  0  0  0
   16.1530   -0.5754   -0.3892 H   0  0  0  0  0  0  0  0  0  0  0  0
   15.1845   -6.3772   -0.2729 H   0  0  0  0  0  0  0  0  0  0  0  0
  1  2  1  0  0  0  0
  1 52  1  0  0  0  0
  1 53  1  0  0  0  0
  1 54  1  0  0  0  0
  2  3  1  0  0  0  0
  2 55  1  0  0  0  0
  3  4  2  0  0  0  0
  3  5  1  0  0  0  0
  5  6  2  0  0  0  0
  5 50  1  0  0  0  0
  6  7  1  0  0  0  0
  6 56  1  0  0  0  0
  7  8  1  0  0  0  0
  7 11  1  0  0  0  0
  8  9  1  0  0  0  0
  8 10  1  0  0  0  0
  8 57  1  0  0  0  0
  9 10  1  0  0  0  0
  9 58  1  0  0  0  0
  9 59  1  0  0  0  0
 10 60  1  0  0  0  0
 10 61  1  0  0  0  0
 11 12  1  0  0  0  0
 11 49  2  0  0  0  0
 12 13  2  0  0  0  0
 12 62  1  0  0  0  0
 13 14  1  0  0  0  0
 13 46  1  0  0  0  0
 14 15  1  0  0  0  0
 14 45  1  0  0  0  0
 15 16  1  0  0  0  0
 15 63  1  0  0  0  0
 15 64  1  0  0  0  0
 16 17  1  0  0  0  0
 16 65  1  0  0  0  0
 16 66  1  0  0  0  0
 17 18  1  0  0  0  0
 17 44  1  0  0  0  0
 18 19  1  0  0  0  0
 18 67  1  0  0  0  0
 18 68  1  0  0  0  0
 19 20  2  0  0  0  0
 19 21  1  0  0  0  0
 21 22  1  0  0  0  0
 21 69  1  0  0  0  0
 22 23  1  0  0  0  0
 22 43  2  0  0  0  0
 23 24  2  0  0  0  0
 23 70  1  0  0  0  0
 24 25  1  0  0  0  0
 24 71  1  0  0  0  0
 25 26  1  0  0  0  0
 25 42  2  0  0  0  0
 26 27  2  0  0  0  0
 26 28  1  0  0  0  0
 28 29  2  0  0  0  0
 28 72  1  0  0  0  0
 29 30  1  0  0  0  0
 29 73  1  0  0  0  0
 30 31  1  0  0  0  0
 30 41  2  0  0  0  0
 31 32  2  0  0  0  0
 31 74  1  0  0  0  0
 32 33  1  0  0  0  0
 32 35  1  0  0  0  0
 33 34  1  0  0  0  0
 34 75  1  0  0  0  0
 34 76  1  0  0  0  0
 34 77  1  0  0  0  0
 35 36  1  0  0  0  0
 35 38  2  0  0  0  0
 36 37  1  0  0  0  0
 37 78  1  0  0  0  0
 37 79  1  0  0  0  0
 37 80  1  0  0  0  0
 38 39  1  0  0  0  0
 38 41  1  0  0  0  0
 39 40  1  0  0  0  0
 40 81  1  0  0  0  0
 40 82  1  0  0  0  0
 40 83  1  0  0  0  0
 41 84  1  0  0  0  0
 42 43  1  0  0  0  0
 42 85  1  0  0  0  0
 43 86  1  0  0  0  0
 44 45  1  0  0  0  0
 44 87  1  0  0  0  0
 44 88  1  0  0  0  0
 45 89  1  0  0  0  0
 45 90  1  0  0  0  0
 46 47  1  0  0  0  0
 46 48  2  0  0  0  0
 48 49  1  0  0  0  0
 48 91  1  0  0  0  0
 49 50  1  0  0  0  0
 50 51  2  0  0  0  0
M  END
>  <Line_Number>
187


> <IC50>
630900

$$$$
