386823
 OpenBabel09302502333D

 49 52  0  0  0  0  0  0  0  0999 V2000
    2.9749    0.2273    1.0076 C   0  0  0  0  0  0  0  0  0  0  0  0
    2.6105   -1.1432    0.5005 C   0  0  0  0  0  0  0  0  0  0  0  0
    1.7060   -1.7836    1.0343 O   0  0  0  0  0  0  0  0  0  0  0  0
    3.3112   -1.6074   -0.5935 N   0  0  0  0  0  0  0  0  0  0  0  0
    4.4255   -0.9113   -1.2437 C   0  0  0  0  0  0  0  0  0  0  0  0
    4.2318   -0.8363   -2.7660 C   0  0  0  0  0  0  0  0  0  0  0  0
    3.9534   -2.1815   -3.2884 N   0  0  0  0  0  0  0  0  0  0  0  0
    4.5711   -2.6625   -4.4239 C   0  0  0  0  0  0  0  0  0  0  0  0
    5.0185   -1.7675   -5.4056 C   0  0  0  0  0  0  0  0  0  0  0  0
    5.6889   -2.1711   -6.5637 C   0  0  0  0  0  0  0  0  0  0  0  0
    5.8884   -3.5440   -6.7463 C   0  0  0  0  0  0  0  0  0  0  0  0
    5.4705   -4.4716   -5.7982 C   0  0  0  0  0  0  0  0  0  0  0  0
    4.8234   -4.0238   -4.6511 C   0  0  0  0  0  0  0  0  0  0  0  0
    4.4817   -4.9422   -3.7335 F   0  0  0  0  0  0  0  0  0  0  0  0
    6.5236   -4.0142   -7.9935 C   0  0  0  0  0  0  0  0  0  0  0  0
    6.7464   -5.2136   -8.1533 O   0  0  0  0  0  0  0  0  0  0  0  0
    6.8488   -3.0260   -9.0436 C   0  0  0  0  0  0  0  0  0  0  0  0
    7.3542   -3.4216  -10.3951 C   0  0  0  0  0  0  0  0  0  0  0  0
    7.6003   -2.5950  -11.2743 O   0  0  0  0  0  0  0  0  0  0  0  0
    7.5249   -4.7651  -10.6136 N   0  0  0  0  0  0  0  0  0  0  0  0
    7.9959   -5.1609  -11.8845 O   0  0  0  0  0  0  0  0  0  0  0  0
    6.6446   -1.7314   -8.7422 C   0  0  0  0  0  0  0  0  0  0  0  0
    6.1588   -1.2387   -7.5277 N   0  0  0  0  0  0  0  0  0  0  0  0
    5.8411    0.2097   -7.4268 C   0  0  0  0  0  0  0  0  0  0  0  0
    6.9535    1.2237   -7.5531 C   0  0  0  0  0  0  0  0  0  0  0  0
    6.1925    1.1280   -6.2706 C   0  0  0  0  0  0  0  0  0  0  0  0
    2.8020   -2.8658   -2.6760 C   0  0  0  0  0  0  0  0  0  0  0  0
    3.0048   -2.9346   -1.1519 C   0  0  0  0  0  0  0  0  0  0  0  0
    2.4032    0.4427    1.9167 H   0  0  0  0  0  0  0  0  0  0  0  0
    2.7200    0.9731    0.2497 H   0  0  0  0  0  0  0  0  0  0  0  0
    4.0375    0.2799    1.2581 H   0  0  0  0  0  0  0  0  0  0  0  0
    5.3313   -1.4868   -1.0169 H   0  0  0  0  0  0  0  0  0  0  0  0
    4.5730    0.0980   -0.8567 H   0  0  0  0  0  0  0  0  0  0  0  0
    5.1481   -0.4034   -3.1836 H   0  0  0  0  0  0  0  0  0  0  0  0
    3.3990   -0.1682   -3.0180 H   0  0  0  0  0  0  0  0  0  0  0  0
    4.8016   -0.7164   -5.2669 H   0  0  0  0  0  0  0  0  0  0  0  0
    5.6434   -5.5364   -5.9267 H   0  0  0  0  0  0  0  0  0  0  0  0
    7.3293   -5.4976   -9.9262 H   0  0  0  0  0  0  0  0  0  0  0  0
    8.0964   -4.2996  -12.3453 H   0  0  0  0  0  0  0  0  0  0  0  0
    6.8583   -0.9475   -9.4631 H   0  0  0  0  0  0  0  0  0  0  0  0
    4.8668    0.4322   -7.8587 H   0  0  0  0  0  0  0  0  0  0  0  0
    6.7806    2.0697   -8.2049 H   0  0  0  0  0  0  0  0  0  0  0  0
    7.9805    0.8773   -7.5290 H   0  0  0  0  0  0  0  0  0  0  0  0
    5.5107    1.9397   -6.0414 H   0  0  0  0  0  0  0  0  0  0  0  0
    6.7009    0.7337   -5.3994 H   0  0  0  0  0  0  0  0  0  0  0  0
    2.6283   -3.8692   -3.0754 H   0  0  0  0  0  0  0  0  0  0  0  0
    1.8969   -2.2854   -2.8998 H   0  0  0  0  0  0  0  0  0  0  0  0
    3.8622   -3.5789   -0.9247 H   0  0  0  0  0  0  0  0  0  0  0  0
    2.1205   -3.3713   -0.6808 H   0  0  0  0  0  0  0  0  0  0  0  0
  1  2  1  0  0  0  0
  1 29  1  0  0  0  0
  1 30  1  0  0  0  0
  1 31  1  0  0  0  0
  2  3  2  0  0  0  0
  2  4  1  0  0  0  0
  4  5  1  0  0  0  0
  4 28  1  0  0  0  0
  5  6  1  0  0  0  0
  5 32  1  0  0  0  0
  5 33  1  0  0  0  0
  6  7  1  0  0  0  0
  6 34  1  0  0  0  0
  6 35  1  0  0  0  0
  7  8  1  0  0  0  0
  7 27  1  0  0  0  0
  8  9  1  0  0  0  0
  8 13  2  0  0  0  0
  9 10  2  0  0  0  0
  9 36  1  0  0  0  0
 10 11  1  0  0  0  0
 10 23  1  0  0  0  0
 11 12  2  0  0  0  0
 11 15  1  0  0  0  0
 12 13  1  0  0  0  0
 12 37  1  0  0  0  0
 13 14  1  0  0  0  0
 15 16  2  0  0  0  0
 15 17  1  0  0  0  0
 17 18  1  0  0  0  0
 17 22  2  0  0  0  0
 18 19  2  0  0  0  0
 18 20  1  0  0  0  0
 20 21  1  0  0  0  0
 20 38  1  0  0  0  0
 21 39  1  0  0  0  0
 22 23  1  0  0  0  0
 22 40  1  0  0  0  0
 23 24  1  0  0  0  0
 24 25  1  0  0  0  0
 24 26  1  0  0  0  0
 24 41  1  0  0  0  0
 25 26  1  0  0  0  0
 25 42  1  0  0  0  0
 25 43  1  0  0  0  0
 26 44  1  0  0  0  0
 26 45  1  0  0  0  0
 27 28  1  0  0  0  0
 27 46  1  0  0  0  0
 27 47  1  0  0  0  0
 28 48  1  0  0  0  0
 28 49  1  0  0  0  0
M  END
>  <Line_Number>
188


> <IC50>
2220

$$$$
