386831
 OpenBabel09302502333D

 79 84  0  0  0  0  0  0  0  0999 V2000
    1.5192   -0.6027   -2.5243 C   0  0  0  0  0  0  0  0  0  0  0  0
    2.8722   -0.9780   -2.0890 N   0  0  0  0  0  0  0  0  0  0  0  0
    3.6655   -1.9234   -2.8875 C   0  0  0  0  0  0  0  0  0  0  0  0
    3.1822   -2.4152   -3.9552 O   0  0  0  0  0  0  0  0  0  0  0  0
    5.0637   -2.3129   -2.4364 C   0  0  0  0  0  0  0  0  0  0  0  0
    5.8068   -3.2021   -3.1896 C   0  0  0  0  0  0  0  0  0  0  0  0
    7.0798   -3.5663   -2.7834 N   0  0  0  0  0  0  0  0  0  0  0  0
    7.8630   -4.5219   -3.5798 C   0  0  0  0  0  0  0  0  0  0  0  0
    7.2484   -5.6392   -4.4265 C   0  0  0  0  0  0  0  0  0  0  0  0
    7.7647   -5.9415   -3.0174 C   0  0  0  0  0  0  0  0  0  0  0  0
    7.6535   -3.0096   -1.6036 C   0  0  0  0  0  0  0  0  0  0  0  0
    8.9686   -3.2481   -1.1931 C   0  0  0  0  0  0  0  0  0  0  0  0
    9.5748   -2.5787   -0.1198 C   0  0  0  0  0  0  0  0  0  0  0  0
   10.9224   -2.7259    0.1335 N   0  0  0  0  0  0  0  0  0  0  0  0
   11.4650   -2.6103    1.4892 C   0  0  0  0  0  0  0  0  0  0  0  0
   12.5982   -1.5692    1.5138 C   0  0  0  0  0  0  0  0  0  0  0  0
   13.6888   -1.8310    0.5292 N   0  0  0  0  0  0  0  0  0  0  0  0
   14.4262   -3.0841    0.8405 C   0  0  0  0  0  0  0  0  0  0  0  0
   15.0980   -3.0247    2.2308 C   0  0  0  0  0  0  0  0  0  0  0  0
   14.8055   -3.8383    3.1098 O   0  0  0  0  0  0  0  0  0  0  0  0
   16.0186   -1.9908    2.4137 N   0  0  0  0  0  0  0  0  0  0  0  0
   16.6412   -1.8543    3.6760 C   0  0  0  0  0  0  0  0  0  0  0  0
   17.4148   -2.9022    4.1833 C   0  0  0  0  0  0  0  0  0  0  0  0
   17.8734   -2.8817    5.5061 C   0  0  0  0  0  0  0  0  0  0  0  0
   17.6190   -1.7851    6.3330 C   0  0  0  0  0  0  0  0  0  0  0  0
   18.0723   -1.8737    7.7684 C   0  0  0  0  0  0  0  0  0  0  0  0
   19.0337   -2.5674    8.0885 O   0  0  0  0  0  0  0  0  0  0  0  0
   17.2763   -1.1261    8.7898 C   0  0  0  0  0  0  0  0  0  0  0  0
   17.5721   -1.1572   10.0998 C   0  0  0  0  0  0  0  0  0  0  0  0
   16.8031   -0.3659   11.0746 C   0  0  0  0  0  0  0  0  0  0  0  0
   15.4749   -0.0581   10.8386 C   0  0  0  0  0  0  0  0  0  0  0  0
   14.7942    0.8497   11.6513 C   0  0  0  0  0  0  0  0  0  0  0  0
   15.4100    1.3707   12.7821 C   0  0  0  0  0  0  0  0  0  0  0  0
   16.6580    0.8543   13.1555 C   0  0  0  0  0  0  0  0  0  0  0  0
   17.4109    0.1005   12.2225 C   0  0  0  0  0  0  0  0  0  0  0  0
   16.9449   -0.6816    5.7750 C   0  0  0  0  0  0  0  0  0  0  0  0
   16.4412   -0.7203    4.4571 C   0  0  0  0  0  0  0  0  0  0  0  0
   13.0471   -1.9064   -0.8202 C   0  0  0  0  0  0  0  0  0  0  0  0
   11.9000   -2.9438   -0.9383 C   0  0  0  0  0  0  0  0  0  0  0  0
    8.7448   -1.7602    0.6427 C   0  0  0  0  0  0  0  0  0  0  0  0
    9.2387   -1.0423    1.6594 F   0  0  0  0  0  0  0  0  0  0  0  0
    7.4207   -1.5683    0.3316 C   0  0  0  0  0  0  0  0  0  0  0  0
    6.9069   -2.1389   -0.8225 C   0  0  0  0  0  0  0  0  0  0  0  0
    5.5873   -1.7454   -1.1953 C   0  0  0  0  0  0  0  0  0  0  0  0
    4.8896   -0.9616   -0.5942 O   0  0  0  0  0  0  0  0  0  0  0  0
    1.1062    0.1020   -1.7999 H   0  0  0  0  0  0  0  0  0  0  0  0
    0.9044   -1.5046   -2.5760 H   0  0  0  0  0  0  0  0  0  0  0  0
    1.5838   -0.1428   -3.5134 H   0  0  0  0  0  0  0  0  0  0  0  0
    3.2470   -0.5961   -1.2626 H   0  0  0  0  0  0  0  0  0  0  0  0
    5.4117   -3.5960   -4.0578 H   0  0  0  0  0  0  0  0  0  0  0  0
    8.6678   -3.8873   -3.9094 H   0  0  0  0  0  0  0  0  0  0  0  0
    7.9238   -5.9993   -5.2195 H   0  0  0  0  0  0  0  0  0  0  0  0
    6.2748   -5.7488   -4.8738 H   0  0  0  0  0  0  0  0  0  0  0  0
    8.6503   -6.5276   -2.8864 H   0  0  0  0  0  0  0  0  0  0  0  0
    7.3450   -6.3785   -2.1355 H   0  0  0  0  0  0  0  0  0  0  0  0
    9.5883   -3.9652   -1.7132 H   0  0  0  0  0  0  0  0  0  0  0  0
   11.8486   -3.5912    1.7852 H   0  0  0  0  0  0  0  0  0  0  0  0
   10.7146   -2.3609    2.2424 H   0  0  0  0  0  0  0  0  0  0  0  0
   12.9902   -1.4829    2.5318 H   0  0  0  0  0  0  0  0  0  0  0  0
   12.1811   -0.5772    1.2887 H   0  0  0  0  0  0  0  0  0  0  0  0
   15.2209   -3.2379    0.1005 H   0  0  0  0  0  0  0  0  0  0  0  0
   13.7881   -3.9804    0.8063 H   0  0  0  0  0  0  0  0  0  0  0  0
   15.8680   -1.1620    1.8466 H   0  0  0  0  0  0  0  0  0  0  0  0
   17.6552   -3.7596    3.5596 H   0  0  0  0  0  0  0  0  0  0  0  0
   18.4086   -3.7460    5.8909 H   0  0  0  0  0  0  0  0  0  0  0  0
   16.4347   -0.5338    8.4560 H   0  0  0  0  0  0  0  0  0  0  0  0
   18.4279   -1.7256   10.4622 H   0  0  0  0  0  0  0  0  0  0  0  0
   14.9012   -0.4652   10.0551 H   0  0  0  0  0  0  0  0  0  0  0  0
   13.7852    1.1093   11.3633 H   0  0  0  0  0  0  0  0  0  0  0  0
   14.9330    2.1231   13.3970 H   0  0  0  0  0  0  0  0  0  0  0  0
   17.0572    1.0520   14.1430 H   0  0  0  0  0  0  0  0  0  0  0  0
   18.4345   -0.1706   12.4678 H   0  0  0  0  0  0  0  0  0  0  0  0
   16.7692    0.2272    6.3416 H   0  0  0  0  0  0  0  0  0  0  0  0
   15.8238    0.1026    4.1032 H   0  0  0  0  0  0  0  0  0  0  0  0
   13.8032   -2.0881   -1.5948 H   0  0  0  0  0  0  0  0  0  0  0  0
   12.6341   -0.9099   -1.0451 H   0  0  0  0  0  0  0  0  0  0  0  0
   12.2978   -3.9600   -0.8475 H   0  0  0  0  0  0  0  0  0  0  0  0
   11.4472   -2.8623   -1.9343 H   0  0  0  0  0  0  0  0  0  0  0  0
    6.8162   -0.9278    0.9467 H   0  0  0  0  0  0  0  0  0  0  0  0
  1  2  1  0  0  0  0
  1 46  1  0  0  0  0
  1 47  1  0  0  0  0
  1 48  1  0  0  0  0
  2  3  1  0  0  0  0
  2 49  1  0  0  0  0
  3  4  2  0  0  0  0
  3  5  1  0  0  0  0
  5  6  2  0  0  0  0
  5 44  1  0  0  0  0
  6  7  1  0  0  0  0
  6 50  1  0  0  0  0
  7  8  1  0  0  0  0
  7 11  1  0  0  0  0
  8  9  1  0  0  0  0
  8 10  1  0  0  0  0
  8 51  1  0  0  0  0
  9 10  1  0  0  0  0
  9 52  1  0  0  0  0
  9 53  1  0  0  0  0
 10 54  1  0  0  0  0
 10 55  1  0  0  0  0
 11 12  1  0  0  0  0
 11 43  2  0  0  0  0
 12 13  2  0  0  0  0
 12 56  1  0  0  0  0
 13 14  1  0  0  0  0
 13 40  1  0  0  0  0
 14 15  1  0  0  0  0
 14 39  1  0  0  0  0
 15 16  1  0  0  0  0
 15 57  1  0  0  0  0
 15 58  1  0  0  0  0
 16 17  1  0  0  0  0
 16 59  1  0  0  0  0
 16 60  1  0  0  0  0
 17 18  1  0  0  0  0
 17 38  1  0  0  0  0
 18 19  1  0  0  0  0
 18 61  1  0  0  0  0
 18 62  1  0  0  0  0
 19 20  2  0  0  0  0
 19 21  1  0  0  0  0
 21 22  1  0  0  0  0
 21 63  1  0  0  0  0
 22 23  1  0  0  0  0
 22 37  2  0  0  0  0
 23 24  2  0  0  0  0
 23 64  1  0  0  0  0
 24 25  1  0  0  0  0
 24 65  1  0  0  0  0
 25 26  1  0  0  0  0
 25 36  2  0  0  0  0
 26 27  2  0  0  0  0
 26 28  1  0  0  0  0
 28 29  2  0  0  0  0
 28 66  1  0  0  0  0
 29 30  1  0  0  0  0
 29 67  1  0  0  0  0
 30 31  1  0  0  0  0
 30 35  2  0  0  0  0
 31 32  2  0  0  0  0
 31 68  1  0  0  0  0
 32 33  1  0  0  0  0
 32 69  1  0  0  0  0
 33 34  2  0  0  0  0
 33 70  1  0  0  0  0
 34 35  1  0  0  0  0
 34 71  1  0  0  0  0
 35 72  1  0  0  0  0
 36 37  1  0  0  0  0
 36 73  1  0  0  0  0
 37 74  1  0  0  0  0
 38 39  1  0  0  0  0
 38 75  1  0  0  0  0
 38 76  1  0  0  0  0
 39 77  1  0  0  0  0
 39 78  1  0  0  0  0
 40 41  1  0  0  0  0
 40 42  2  0  0  0  0
 42 43  1  0  0  0  0
 42 79  1  0  0  0  0
 43 44  1  0  0  0  0
 44 45  2  0  0  0  0
M  END
>  <Line_Number>
189


> <IC50>
2413400

$$$$
