15086385.0
 OpenBabel09302502333D

 32 32  0  0  0  0  0  0  0  0999 V2000
    0.9610   -0.0174   -0.0868 C   0  0  0  0  0  0  0  0  0  0  0  0
    2.4809   -0.0343   -0.0725 C   0  0  0  0  0  0  0  0  0  0  0  0
    3.0250   -1.1024   -1.0138 C   0  0  0  0  0  0  0  0  0  0  0  0
    4.5529   -1.1270   -1.0049 C   0  0  0  0  0  0  0  0  0  0  0  0
    5.0696   -2.2033   -1.9554 C   0  0  0  0  0  0  0  0  0  0  0  0
    6.5976   -2.2572   -1.9781 C   0  0  0  0  0  0  0  0  0  0  0  0
    7.0635   -3.3341   -2.9259 C   0  0  0  0  0  0  0  0  0  0  0  0
    7.2500   -4.6481   -2.4647 C   0  0  0  0  0  0  0  0  0  0  0  0
    7.5786   -5.6763   -3.3526 C   0  0  0  0  0  0  0  0  0  0  0  0
    7.7219   -5.3841   -4.7031 C   0  0  0  0  0  0  0  0  0  0  0  0
    8.0158   -6.3529   -5.6228 O   0  0  0  0  0  0  0  0  0  0  0  0
    7.5541   -4.0807   -5.1638 C   0  0  0  0  0  0  0  0  0  0  0  0
    7.6881   -3.8031   -6.4949 O   0  0  0  0  0  0  0  0  0  0  0  0
    7.2290   -3.0535   -4.2894 C   0  0  0  0  0  0  0  0  0  0  0  0
    0.5827    0.7531    0.5917 H   0  0  0  0  0  0  0  0  0  0  0  0
    0.5562   -0.9829    0.2336 H   0  0  0  0  0  0  0  0  0  0  0  0
    0.5818    0.1969   -1.0910 H   0  0  0  0  0  0  0  0  0  0  0  0
    2.8310   -0.2224    0.9492 H   0  0  0  0  0  0  0  0  0  0  0  0
    2.8564    0.9523   -0.3691 H   0  0  0  0  0  0  0  0  0  0  0  0
    2.6659   -0.9126   -2.0330 H   0  0  0  0  0  0  0  0  0  0  0  0
    2.6402   -2.0855   -0.7157 H   0  0  0  0  0  0  0  0  0  0  0  0
    4.9150   -1.3244    0.0108 H   0  0  0  0  0  0  0  0  0  0  0  0
    4.9420   -0.1470   -1.3061 H   0  0  0  0  0  0  0  0  0  0  0  0
    4.6896   -2.0083   -2.9667 H   0  0  0  0  0  0  0  0  0  0  0  0
    4.6658   -3.1782   -1.6527 H   0  0  0  0  0  0  0  0  0  0  0  0
    6.9886   -2.4560   -0.9722 H   0  0  0  0  0  0  0  0  0  0  0  0
    7.0108   -1.2883   -2.2834 H   0  0  0  0  0  0  0  0  0  0  0  0
    7.1204   -4.8780   -1.4097 H   0  0  0  0  0  0  0  0  0  0  0  0
    7.7014   -6.6853   -2.9739 H   0  0  0  0  0  0  0  0  0  0  0  0
    8.0769   -7.2016   -5.1518 H   0  0  0  0  0  0  0  0  0  0  0  0
    7.8859   -4.6707   -6.9024 H   0  0  0  0  0  0  0  0  0  0  0  0
    7.0843   -2.0480   -4.6751 H   0  0  0  0  0  0  0  0  0  0  0  0
  1  2  1  0  0  0  0
  1 15  1  0  0  0  0
  1 16  1  0  0  0  0
  1 17  1  0  0  0  0
  2  3  1  0  0  0  0
  2 18  1  0  0  0  0
  2 19  1  0  0  0  0
  3  4  1  0  0  0  0
  3 20  1  0  0  0  0
  3 21  1  0  0  0  0
  4  5  1  0  0  0  0
  4 22  1  0  0  0  0
  4 23  1  0  0  0  0
  5  6  1  0  0  0  0
  5 24  1  0  0  0  0
  5 25  1  0  0  0  0
  6  7  1  0  0  0  0
  6 26  1  0  0  0  0
  6 27  1  0  0  0  0
  7  8  1  0  0  0  0
  7 14  2  0  0  0  0
  8  9  2  0  0  0  0
  8 28  1  0  0  0  0
  9 10  1  0  0  0  0
  9 29  1  0  0  0  0
 10 11  1  0  0  0  0
 10 12  2  0  0  0  0
 11 30  1  0  0  0  0
 12 13  1  0  0  0  0
 12 14  1  0  0  0  0
 13 31  1  0  0  0  0
 14 32  1  0  0  0  0
M  END
>  <Line_Number>
18


> <IC50>
45050

$$$$
