386840
 OpenBabel09302502333D

 49 52  0  0  1  0  0  0  0  0999 V2000
    3.1080    0.4721   -1.3622 C   0  0  0  0  0  0  0  0  0  0  0  0
    2.7494    0.2190    0.1060 C   0  0  1  0  0  0  0  0  0  0  0  0
    2.4428    1.5201    0.8440 C   0  0  0  0  0  0  0  0  0  0  0  0
    1.3409    2.1984    0.2366 O   0  0  0  0  0  0  0  0  0  0  0  0
    0.2086    1.4118    0.1353 C   0  0  0  0  0  0  0  0  0  0  0  0
   -1.0378    2.0536   -0.0568 C   0  0  0  0  0  0  0  0  0  0  0  0
   -1.2300    3.4394   -0.2379 N   0  0  0  0  0  0  0  0  0  0  0  0
   -0.1805    4.4039    0.1488 C   0  0  0  0  0  0  0  0  0  0  0  0
   -0.7404    5.8484    0.1146 C   0  0  0  0  0  0  0  0  0  0  0  0
   -1.3142    6.2066   -1.2036 N   0  0  0  0  0  0  0  0  0  0  0  0
   -1.8746    7.5538   -1.1763 C   0  0  0  0  0  0  0  0  0  0  0  0
   -2.3554    5.2161   -1.5555 C   0  0  0  0  0  0  0  0  0  0  0  0
   -1.8037    3.7737   -1.5675 C   0  0  0  0  0  0  0  0  0  0  0  0
   -2.1775    1.2119   -0.0660 C   0  0  0  0  0  0  0  0  0  0  0  0
   -3.4052    1.7513   -0.1600 F   0  0  0  0  0  0  0  0  0  0  0  0
   -2.1016   -0.1726    0.0235 C   0  0  0  0  0  0  0  0  0  0  0  0
   -0.8527   -0.7789    0.1077 C   0  0  0  0  0  0  0  0  0  0  0  0
   -0.7600   -2.2614    0.1196 C   0  0  0  0  0  0  0  0  0  0  0  0
   -1.7759   -2.9509    0.0994 O   0  0  0  0  0  0  0  0  0  0  0  0
    0.5915   -2.8772    0.1303 C   0  0  0  0  0  0  0  0  0  0  0  0
    0.8518   -4.3407    0.0774 C   0  0  0  0  0  0  0  0  0  0  0  0
    1.9931   -4.8015    0.0389 O   0  0  0  0  0  0  0  0  0  0  0  0
   -0.2764   -5.1428    0.0622 N   0  0  0  0  0  0  0  0  0  0  0  0
   -0.1420   -6.5484    0.0448 N   0  0  0  0  0  0  0  0  0  0  0  0
    1.6410   -2.0396    0.1657 C   0  0  0  0  0  0  0  0  0  0  0  0
    1.5753   -0.6612    0.2025 N   0  0  0  0  0  0  0  0  0  0  0  0
    0.3186   -0.0053    0.1586 C   0  0  0  0  0  0  0  0  0  0  0  0
    3.9847    1.1241   -1.4355 H   0  0  0  0  0  0  0  0  0  0  0  0
    2.2901    0.9505   -1.9128 H   0  0  0  0  0  0  0  0  0  0  0  0
    3.3385   -0.4665   -1.8760 H   0  0  0  0  0  0  0  0  0  0  0  0
    3.6064   -0.2596    0.5975 H   0  0  0  0  0  0  0  0  0  0  0  0
    3.3055    2.1938    0.8049 H   0  0  0  0  0  0  0  0  0  0  0  0
    2.2192    1.3416    1.9046 H   0  0  0  0  0  0  0  0  0  0  0  0
    0.6706    4.3511   -0.5428 H   0  0  0  0  0  0  0  0  0  0  0  0
    0.1669    4.2038    1.1688 H   0  0  0  0  0  0  0  0  0  0  0  0
    0.0781    6.5378    0.3542 H   0  0  0  0  0  0  0  0  0  0  0  0
   -1.5004    5.9512    0.9005 H   0  0  0  0  0  0  0  0  0  0  0  0
   -1.0933    8.2874   -0.9506 H   0  0  0  0  0  0  0  0  0  0  0  0
   -2.6733    7.6588   -0.4334 H   0  0  0  0  0  0  0  0  0  0  0  0
   -2.2809    7.8183   -2.1592 H   0  0  0  0  0  0  0  0  0  0  0  0
   -2.7557    5.4406   -2.5512 H   0  0  0  0  0  0  0  0  0  0  0  0
   -3.1902    5.2699   -0.8431 H   0  0  0  0  0  0  0  0  0  0  0  0
   -1.0257    3.6797   -2.3378 H   0  0  0  0  0  0  0  0  0  0  0  0
   -2.6215    3.1043   -1.8546 H   0  0  0  0  0  0  0  0  0  0  0  0
   -3.0163   -0.7568    0.0014 H   0  0  0  0  0  0  0  0  0  0  0  0
   -1.2089   -4.7189    0.1395 H   0  0  0  0  0  0  0  0  0  0  0  0
    0.8625   -6.7530    0.1408 H   0  0  0  0  0  0  0  0  0  0  0  0
   -0.3794   -6.8742   -0.8950 H   0  0  0  0  0  0  0  0  0  0  0  0
    2.6587   -2.4259    0.1618 H   0  0  0  0  0  0  0  0  0  0  0  0
  1  2  1  0  0  0  0
  1 28  1  0  0  0  0
  1 29  1  0  0  0  0
  1 30  1  0  0  0  0
  2  3  1  0  0  0  0
  2 26  1  0  0  0  0
  2 31  1  1  0  0  0
  3  4  1  0  0  0  0
  3 32  1  0  0  0  0
  3 33  1  0  0  0  0
  4  5  1  0  0  0  0
  5  6  1  0  0  0  0
  5 27  2  0  0  0  0
  6  7  1  0  0  0  0
  6 14  2  0  0  0  0
  7  8  1  0  0  0  0
  7 13  1  0  0  0  0
  8  9  1  0  0  0  0
  8 34  1  0  0  0  0
  8 35  1  0  0  0  0
  9 10  1  0  0  0  0
  9 36  1  0  0  0  0
  9 37  1  0  0  0  0
 10 11  1  0  0  0  0
 10 12  1  0  0  0  0
 11 38  1  0  0  0  0
 11 39  1  0  0  0  0
 11 40  1  0  0  0  0
 12 13  1  0  0  0  0
 12 41  1  0  0  0  0
 12 42  1  0  0  0  0
 13 43  1  0  0  0  0
 13 44  1  0  0  0  0
 14 15  1  0  0  0  0
 14 16  1  0  0  0  0
 16 17  2  0  0  0  0
 16 45  1  0  0  0  0
 17 18  1  0  0  0  0
 17 27  1  0  0  0  0
 18 19  2  0  0  0  0
 18 20  1  0  0  0  0
 20 21  1  0  0  0  0
 20 25  2  0  0  0  0
 21 22  2  0  0  0  0
 21 23  1  0  0  0  0
 23 24  1  0  0  0  0
 23 46  1  0  0  0  0
 24 47  1  0  0  0  0
 24 48  1  0  0  0  0
 25 26  1  0  0  0  0
 25 49  1  0  0  0  0
 26 27  1  0  0  0  0
M  END
>  <Line_Number>
190


> <IC50>
772340

$$$$
