386821
 OpenBabel09302502333D

 47 50  0  0  0  0  0  0  0  0999 V2000
    0.6883   -0.3735    0.7506 C   0  0  0  0  0  0  0  0  0  0  0  0
    1.9268   -0.4822   -0.0980 C   0  0  0  0  0  0  0  0  0  0  0  0
    2.1927    0.3924   -0.9225 O   0  0  0  0  0  0  0  0  0  0  0  0
    2.7319   -1.5895    0.1015 N   0  0  0  0  0  0  0  0  0  0  0  0
    2.3895   -2.7355    0.9661 C   0  0  0  0  0  0  0  0  0  0  0  0
    3.6314   -3.3833    1.6195 C   0  0  0  0  0  0  0  0  0  0  0  0
    4.6233   -3.6555    0.5726 N   0  0  0  0  0  0  0  0  0  0  0  0
    5.5105   -4.7146    0.6712 C   0  0  0  0  0  0  0  0  0  0  0  0
    6.0050   -5.2674   -0.5243 C   0  0  0  0  0  0  0  0  0  0  0  0
    6.8853   -6.3543   -0.5558 C   0  0  0  0  0  0  0  0  0  0  0  0
    7.2352   -6.9396    0.6721 C   0  0  0  0  0  0  0  0  0  0  0  0
    6.7609   -6.4244    1.8819 C   0  0  0  0  0  0  0  0  0  0  0  0
    5.9091   -5.3240    1.8697 C   0  0  0  0  0  0  0  0  0  0  0  0
    5.4854   -4.8474    3.0510 F   0  0  0  0  0  0  0  0  0  0  0  0
    8.0964   -8.1454    0.6750 C   0  0  0  0  0  0  0  0  0  0  0  0
    8.4523   -8.6693    1.7276 O   0  0  0  0  0  0  0  0  0  0  0  0
    8.4906   -8.7296   -0.6233 C   0  0  0  0  0  0  0  0  0  0  0  0
    9.2447   -9.9912   -0.7492 C   0  0  0  0  0  0  0  0  0  0  0  0
    9.5444  -10.4889   -1.8251 O   0  0  0  0  0  0  0  0  0  0  0  0
    9.5778  -10.5665    0.4267 O   0  0  0  0  0  0  0  0  0  0  0  0
    8.1280   -8.0632   -1.7311 C   0  0  0  0  0  0  0  0  0  0  0  0
    7.4147   -6.8774   -1.7656 N   0  0  0  0  0  0  0  0  0  0  0  0
    7.1236   -6.2851   -3.0885 C   0  0  0  0  0  0  0  0  0  0  0  0
    8.2524   -5.8278   -3.9848 C   0  0  0  0  0  0  0  0  0  0  0  0
    7.3100   -4.8208   -3.4129 C   0  0  0  0  0  0  0  0  0  0  0  0
    5.0535   -2.4474   -0.1602 C   0  0  0  0  0  0  0  0  0  0  0  0
    3.8287   -1.8285   -0.8477 C   0  0  0  0  0  0  0  0  0  0  0  0
    0.1698    0.5601    0.5140 H   0  0  0  0  0  0  0  0  0  0  0  0
    0.9532   -0.3557    1.8105 H   0  0  0  0  0  0  0  0  0  0  0  0
    0.0143   -1.2063    0.5326 H   0  0  0  0  0  0  0  0  0  0  0  0
    1.8894   -3.4699    0.3217 H   0  0  0  0  0  0  0  0  0  0  0  0
    1.6824   -2.4475    1.7463 H   0  0  0  0  0  0  0  0  0  0  0  0
    3.3094   -4.3033    2.1204 H   0  0  0  0  0  0  0  0  0  0  0  0
    4.0570   -2.7082    2.3718 H   0  0  0  0  0  0  0  0  0  0  0  0
    5.6401   -4.8524   -1.4580 H   0  0  0  0  0  0  0  0  0  0  0  0
    7.0366   -6.8737    2.8318 H   0  0  0  0  0  0  0  0  0  0  0  0
    9.2853  -10.0593    1.2239 H   0  0  0  0  0  0  0  0  0  0  0  0
    8.3906   -8.4425   -2.7180 H   0  0  0  0  0  0  0  0  0  0  0  0
    6.2837   -6.7803   -3.5729 H   0  0  0  0  0  0  0  0  0  0  0  0
    8.1841   -6.0420   -5.0441 H   0  0  0  0  0  0  0  0  0  0  0  0
    9.2629   -5.8333   -3.5921 H   0  0  0  0  0  0  0  0  0  0  0  0
    6.5905   -4.3589   -4.0803 H   0  0  0  0  0  0  0  0  0  0  0  0
    7.6959   -4.1539   -2.6510 H   0  0  0  0  0  0  0  0  0  0  0  0
    5.8210   -2.6521   -0.9150 H   0  0  0  0  0  0  0  0  0  0  0  0
    5.4851   -1.7290    0.5490 H   0  0  0  0  0  0  0  0  0  0  0  0
    3.4430   -2.5219   -1.6069 H   0  0  0  0  0  0  0  0  0  0  0  0
    4.1176   -0.9074   -1.3618 H   0  0  0  0  0  0  0  0  0  0  0  0
  1  2  1  0  0  0  0
  1 28  1  0  0  0  0
  1 29  1  0  0  0  0
  1 30  1  0  0  0  0
  2  3  2  0  0  0  0
  2  4  1  0  0  0  0
  4  5  1  0  0  0  0
  4 27  1  0  0  0  0
  5  6  1  0  0  0  0
  5 31  1  0  0  0  0
  5 32  1  0  0  0  0
  6  7  1  0  0  0  0
  6 33  1  0  0  0  0
  6 34  1  0  0  0  0
  7  8  1  0  0  0  0
  7 26  1  0  0  0  0
  8  9  1  0  0  0  0
  8 13  2  0  0  0  0
  9 10  2  0  0  0  0
  9 35  1  0  0  0  0
 10 11  1  0  0  0  0
 10 22  1  0  0  0  0
 11 12  2  0  0  0  0
 11 15  1  0  0  0  0
 12 13  1  0  0  0  0
 12 36  1  0  0  0  0
 13 14  1  0  0  0  0
 15 16  2  0  0  0  0
 15 17  1  0  0  0  0
 17 18  1  0  0  0  0
 17 21  2  0  0  0  0
 18 19  2  0  0  0  0
 18 20  1  0  0  0  0
 20 37  1  0  0  0  0
 21 22  1  0  0  0  0
 21 38  1  0  0  0  0
 22 23  1  0  0  0  0
 23 24  1  0  0  0  0
 23 25  1  0  0  0  0
 23 39  1  0  0  0  0
 24 25  1  0  0  0  0
 24 40  1  0  0  0  0
 24 41  1  0  0  0  0
 25 42  1  0  0  0  0
 25 43  1  0  0  0  0
 26 27  1  0  0  0  0
 26 44  1  0  0  0  0
 26 45  1  0  0  0  0
 27 46  1  0  0  0  0
 27 47  1  0  0  0  0
M  END
>  <Line_Number>
191


> <IC50>
2260

$$$$
