386835
 OpenBabel09302502333D

 69 73  0  0  0  0  0  0  0  0999 V2000
    4.9341   -2.3862    5.1016 C   0  0  0  0  0  0  0  0  0  0  0  0
    5.5127   -1.9538    3.8758 O   0  0  0  0  0  0  0  0  0  0  0  0
    5.1523   -0.7235    3.3914 C   0  0  0  0  0  0  0  0  0  0  0  0
    4.2533    0.1164    4.0563 C   0  0  0  0  0  0  0  0  0  0  0  0
    3.8384    1.3206    3.4842 C   0  0  0  0  0  0  0  0  0  0  0  0
    2.7536    2.1401    4.0847 C   0  0  0  0  0  0  0  0  0  0  0  0
    2.9097    3.3598    4.0824 O   0  0  0  0  0  0  0  0  0  0  0  0
    1.6037    1.5314    4.5866 N   0  0  0  0  0  0  0  0  0  0  0  0
    1.2344    0.1056    4.4919 C   0  0  0  0  0  0  0  0  0  0  0  0
   -0.1310   -0.1048    3.8273 C   0  0  0  0  0  0  0  0  0  0  0  0
   -1.1257    0.7718    4.4526 N   0  0  0  0  0  0  0  0  0  0  0  0
   -2.3378    0.2489    4.8461 C   0  0  0  0  0  0  0  0  0  0  0  0
   -2.3295   -0.9275    5.6098 C   0  0  0  0  0  0  0  0  0  0  0  0
   -3.5003   -1.5994    5.9489 C   0  0  0  0  0  0  0  0  0  0  0  0
   -4.7229   -1.1039    5.4554 C   0  0  0  0  0  0  0  0  0  0  0  0
   -4.7790    0.1291    4.8049 C   0  0  0  0  0  0  0  0  0  0  0  0
   -3.5873    0.8044    4.5307 C   0  0  0  0  0  0  0  0  0  0  0  0
   -3.6600    1.9762    3.8791 F   0  0  0  0  0  0  0  0  0  0  0  0
   -5.9366   -1.9654    5.6075 C   0  0  0  0  0  0  0  0  0  0  0  0
   -7.0489   -1.5779    5.2793 O   0  0  0  0  0  0  0  0  0  0  0  0
   -5.7060   -3.3239    6.1977 C   0  0  0  0  0  0  0  0  0  0  0  0
   -5.5910   -4.5129    5.2952 C   0  0  0  0  0  0  0  0  0  0  0  0
   -5.7900   -4.4485    4.0825 O   0  0  0  0  0  0  0  0  0  0  0  0
   -5.2443   -5.6967    5.9573 N   0  0  0  0  0  0  0  0  0  0  0  0
   -4.9540   -6.8697    5.2288 N   0  0  0  0  0  0  0  0  0  0  0  0
   -4.7559   -3.2588    7.1584 C   0  0  0  0  0  0  0  0  0  0  0  0
   -3.4835   -2.7209    6.8323 N   0  0  0  0  0  0  0  0  0  0  0  0
   -2.3989   -3.7178    6.7003 C   0  0  0  0  0  0  0  0  0  0  0  0
   -2.0388   -4.6157    7.8569 C   0  0  0  0  0  0  0  0  0  0  0  0
   -1.0777   -3.5591    7.4079 C   0  0  0  0  0  0  0  0  0  0  0  0
   -0.8057    2.2017    4.4410 C   0  0  0  0  0  0  0  0  0  0  0  0
    0.5479    2.3850    5.1691 C   0  0  0  0  0  0  0  0  0  0  0  0
    4.4698    1.7920    2.3317 C   0  0  0  0  0  0  0  0  0  0  0  0
    5.4360    1.0081    1.6967 C   0  0  0  0  0  0  0  0  0  0  0  0
    6.0809    1.4117    0.5516 O   0  0  0  0  0  0  0  0  0  0  0  0
    6.3652    2.8063    0.4722 C   0  0  0  0  0  0  0  0  0  0  0  0
    5.7265   -0.2864    2.1811 C   0  0  0  0  0  0  0  0  0  0  0  0
    6.6488   -0.9985    1.4485 O   0  0  0  0  0  0  0  0  0  0  0  0
    6.4080   -2.3954    1.3207 C   0  0  0  0  0  0  0  0  0  0  0  0
    5.3470   -3.3700    5.3414 H   0  0  0  0  0  0  0  0  0  0  0  0
    3.8471   -2.4948    5.0109 H   0  0  0  0  0  0  0  0  0  0  0  0
    5.1968   -1.7078    5.9197 H   0  0  0  0  0  0  0  0  0  0  0  0
    3.8348   -0.1590    5.0174 H   0  0  0  0  0  0  0  0  0  0  0  0
    1.2143   -0.2797    5.5197 H   0  0  0  0  0  0  0  0  0  0  0  0
    1.9493   -0.4818    3.9222 H   0  0  0  0  0  0  0  0  0  0  0  0
   -0.3913   -1.1694    3.8913 H   0  0  0  0  0  0  0  0  0  0  0  0
   -0.0634    0.1312    2.7589 H   0  0  0  0  0  0  0  0  0  0  0  0
   -1.3783   -1.3056    5.9640 H   0  0  0  0  0  0  0  0  0  0  0  0
   -5.7267    0.5546    4.4833 H   0  0  0  0  0  0  0  0  0  0  0  0
   -4.9691   -5.6666    6.9365 H   0  0  0  0  0  0  0  0  0  0  0  0
   -5.3227   -6.7381    4.2770 H   0  0  0  0  0  0  0  0  0  0  0  0
   -5.5039   -7.6375    5.6212 H   0  0  0  0  0  0  0  0  0  0  0  0
   -5.0276   -2.5990    7.9872 H   0  0  0  0  0  0  0  0  0  0  0  0
   -2.3696   -4.1698    5.7092 H   0  0  0  0  0  0  0  0  0  0  0  0
   -1.8089   -5.6499    7.6333 H   0  0  0  0  0  0  0  0  0  0  0  0
   -2.5386   -4.4616    8.8064 H   0  0  0  0  0  0  0  0  0  0  0  0
   -0.1820   -3.8823    6.8900 H   0  0  0  0  0  0  0  0  0  0  0  0
   -0.9363   -2.6987    8.0513 H   0  0  0  0  0  0  0  0  0  0  0  0
   -1.5689    2.8001    4.9497 H   0  0  0  0  0  0  0  0  0  0  0  0
   -0.7243    2.5521    3.4054 H   0  0  0  0  0  0  0  0  0  0  0  0
    0.4418    2.0738    6.2167 H   0  0  0  0  0  0  0  0  0  0  0  0
    0.8348    3.4397    5.1671 H   0  0  0  0  0  0  0  0  0  0  0  0
    4.1810    2.7612    1.9351 H   0  0  0  0  0  0  0  0  0  0  0  0
    7.1117    2.9517   -0.3148 H   0  0  0  0  0  0  0  0  0  0  0  0
    6.7880    3.1904    1.4077 H   0  0  0  0  0  0  0  0  0  0  0  0
    5.4711    3.3695    0.1872 H   0  0  0  0  0  0  0  0  0  0  0  0
    6.9246   -2.7414    0.4196 H   0  0  0  0  0  0  0  0  0  0  0  0
    5.3439   -2.6295    1.2026 H   0  0  0  0  0  0  0  0  0  0  0  0
    6.8442   -2.9396    2.1632 H   0  0  0  0  0  0  0  0  0  0  0  0
  1  2  1  0  0  0  0
  1 40  1  0  0  0  0
  1 41  1  0  0  0  0
  1 42  1  0  0  0  0
  2  3  1  0  0  0  0
  3  4  1  0  0  0  0
  3 37  2  0  0  0  0
  4  5  2  0  0  0  0
  4 43  1  0  0  0  0
  5  6  1  0  0  0  0
  5 33  1  0  0  0  0
  6  7  2  0  0  0  0
  6  8  1  0  0  0  0
  8  9  1  0  0  0  0
  8 32  1  0  0  0  0
  9 10  1  0  0  0  0
  9 44  1  0  0  0  0
  9 45  1  0  0  0  0
 10 11  1  0  0  0  0
 10 46  1  0  0  0  0
 10 47  1  0  0  0  0
 11 12  1  0  0  0  0
 11 31  1  0  0  0  0
 12 13  1  0  0  0  0
 12 17  2  0  0  0  0
 13 14  2  0  0  0  0
 13 48  1  0  0  0  0
 14 15  1  0  0  0  0
 14 27  1  0  0  0  0
 15 16  2  0  0  0  0
 15 19  1  0  0  0  0
 16 17  1  0  0  0  0
 16 49  1  0  0  0  0
 17 18  1  0  0  0  0
 19 20  2  0  0  0  0
 19 21  1  0  0  0  0
 21 22  1  0  0  0  0
 21 26  2  0  0  0  0
 22 23  2  0  0  0  0
 22 24  1  0  0  0  0
 24 25  1  0  0  0  0
 24 50  1  0  0  0  0
 25 51  1  0  0  0  0
 25 52  1  0  0  0  0
 26 27  1  0  0  0  0
 26 53  1  0  0  0  0
 27 28  1  0  0  0  0
 28 29  1  0  0  0  0
 28 30  1  0  0  0  0
 28 54  1  0  0  0  0
 29 30  1  0  0  0  0
 29 55  1  0  0  0  0
 29 56  1  0  0  0  0
 30 57  1  0  0  0  0
 30 58  1  0  0  0  0
 31 32  1  0  0  0  0
 31 59  1  0  0  0  0
 31 60  1  0  0  0  0
 32 61  1  0  0  0  0
 32 62  1  0  0  0  0
 33 34  2  0  0  0  0
 33 63  1  0  0  0  0
 34 35  1  0  0  0  0
 34 37  1  0  0  0  0
 35 36  1  0  0  0  0
 36 64  1  0  0  0  0
 36 65  1  0  0  0  0
 36 66  1  0  0  0  0
 37 38  1  0  0  0  0
 38 39  1  0  0  0  0
 39 67  1  0  0  0  0
 39 68  1  0  0  0  0
 39 69  1  0  0  0  0
M  END
>  <Line_Number>
192


> <IC50>
2080

$$$$
