386825
 OpenBabel09302502333D

 68 72  0  0  0  0  0  0  0  0999 V2000
    4.8965    2.1840    5.2661 C   0  0  0  0  0  0  0  0  0  0  0  0
    5.8511    2.0079    4.2206 O   0  0  0  0  0  0  0  0  0  0  0  0
    5.4385    2.3308    2.9534 C   0  0  0  0  0  0  0  0  0  0  0  0
    4.5218    3.3597    2.7240 C   0  0  0  0  0  0  0  0  0  0  0  0
    4.0524    3.6243    1.4360 C   0  0  0  0  0  0  0  0  0  0  0  0
    2.9310    4.5666    1.1956 C   0  0  0  0  0  0  0  0  0  0  0  0
    3.0360    5.3374    0.2435 O   0  0  0  0  0  0  0  0  0  0  0  0
    1.7991    4.5151    2.0053 N   0  0  0  0  0  0  0  0  0  0  0  0
    1.5326    3.5579    3.0955 C   0  0  0  0  0  0  0  0  0  0  0  0
    0.1505    2.9083    2.9857 C   0  0  0  0  0  0  0  0  0  0  0  0
   -0.8626    3.9614    2.8268 N   0  0  0  0  0  0  0  0  0  0  0  0
   -2.0629    3.8285    3.4919 C   0  0  0  0  0  0  0  0  0  0  0  0
   -2.0134    3.5393    4.8633 C   0  0  0  0  0  0  0  0  0  0  0  0
   -3.1600    3.3057    5.6225 C   0  0  0  0  0  0  0  0  0  0  0  0
   -4.4055    3.3332    4.9674 C   0  0  0  0  0  0  0  0  0  0  0  0
   -4.5040    3.7316    3.6338 C   0  0  0  0  0  0  0  0  0  0  0  0
   -3.3337    3.9860    2.9169 C   0  0  0  0  0  0  0  0  0  0  0  0
   -3.4555    4.3399    1.6263 F   0  0  0  0  0  0  0  0  0  0  0  0
   -5.6044    2.8760    5.7354 C   0  0  0  0  0  0  0  0  0  0  0  0
   -6.7447    3.0175    5.3165 O   0  0  0  0  0  0  0  0  0  0  0  0
   -5.3112    2.2409    7.0635 C   0  0  0  0  0  0  0  0  0  0  0  0
   -5.1252    0.7567    7.1258 C   0  0  0  0  0  0  0  0  0  0  0  0
   -5.3567    0.0056    6.1776 O   0  0  0  0  0  0  0  0  0  0  0  0
   -4.6616    0.2942    8.3361 N   0  0  0  0  0  0  0  0  0  0  0  0
   -4.4095   -1.0834    8.4734 O   0  0  0  0  0  0  0  0  0  0  0  0
   -4.3455    2.9544    7.6850 C   0  0  0  0  0  0  0  0  0  0  0  0
   -3.0928    3.1034    7.0398 N   0  0  0  0  0  0  0  0  0  0  0  0
   -2.0110    2.2342    7.5647 C   0  0  0  0  0  0  0  0  0  0  0  0
   -1.5843    2.3235    9.0076 C   0  0  0  0  0  0  0  0  0  0  0  0
   -0.6499    2.7682    7.9251 C   0  0  0  0  0  0  0  0  0  0  0  0
   -0.6652    4.7981    1.6330 C   0  0  0  0  0  0  0  0  0  0  0  0
    0.7134    5.4881    1.7730 C   0  0  0  0  0  0  0  0  0  0  0  0
    4.6445    3.0011    0.3381 C   0  0  0  0  0  0  0  0  0  0  0  0
    5.6454    2.0476    0.5396 C   0  0  0  0  0  0  0  0  0  0  0  0
    6.2578    1.3920   -0.5025 O   0  0  0  0  0  0  0  0  0  0  0  0
    6.4776    2.1815   -1.6690 C   0  0  0  0  0  0  0  0  0  0  0  0
    6.0034    1.6608    1.8508 C   0  0  0  0  0  0  0  0  0  0  0  0
    6.9639    0.6795    1.9329 O   0  0  0  0  0  0  0  0  0  0  0  0
    6.8184   -0.2621    2.9887 C   0  0  0  0  0  0  0  0  0  0  0  0
    5.3248    1.7705    6.1841 H   0  0  0  0  0  0  0  0  0  0  0  0
    3.9677    1.6415    5.0544 H   0  0  0  0  0  0  0  0  0  0  0  0
    4.6953    3.2426    5.4555 H   0  0  0  0  0  0  0  0  0  0  0  0
    4.1412    3.9602    3.5425 H   0  0  0  0  0  0  0  0  0  0  0  0
    1.6107    4.1200    4.0332 H   0  0  0  0  0  0  0  0  0  0  0  0
    2.2549    2.7428    3.1224 H   0  0  0  0  0  0  0  0  0  0  0  0
   -0.0048    2.2810    3.8711 H   0  0  0  0  0  0  0  0  0  0  0  0
    0.1216    2.2343    2.1205 H   0  0  0  0  0  0  0  0  0  0  0  0
   -1.0482    3.5356    5.3621 H   0  0  0  0  0  0  0  0  0  0  0  0
   -5.4681    3.8158    3.1419 H   0  0  0  0  0  0  0  0  0  0  0  0
   -4.4122    0.8842    9.1223 H   0  0  0  0  0  0  0  0  0  0  0  0
   -4.8812   -1.4636    7.7019 H   0  0  0  0  0  0  0  0  0  0  0  0
   -4.6059    4.0080    7.8517 H   0  0  0  0  0  0  0  0  0  0  0  0
   -2.0367    1.2352    7.1291 H   0  0  0  0  0  0  0  0  0  0  0  0
   -1.3670    1.3961    9.5246 H   0  0  0  0  0  0  0  0  0  0  0  0
   -2.0215    3.0933    9.6327 H   0  0  0  0  0  0  0  0  0  0  0  0
    0.2115    2.1444    7.7145 H   0  0  0  0  0  0  0  0  0  0  0  0
   -0.4655    3.8315    7.8232 H   0  0  0  0  0  0  0  0  0  0  0  0
   -1.4329    5.5727    1.5402 H   0  0  0  0  0  0  0  0  0  0  0  0
   -0.6855    4.1750    0.7302 H   0  0  0  0  0  0  0  0  0  0  0  0
    0.6981    6.1467    2.6513 H   0  0  0  0  0  0  0  0  0  0  0  0
    0.9119    6.1120    0.8972 H   0  0  0  0  0  0  0  0  0  0  0  0
    4.3007    3.2590   -0.6596 H   0  0  0  0  0  0  0  0  0  0  0  0
    7.2039    1.6564   -2.2968 H   0  0  0  0  0  0  0  0  0  0  0  0
    6.8972    3.1634   -1.4222 H   0  0  0  0  0  0  0  0  0  0  0  0
    5.5550    2.2853   -2.2488 H   0  0  0  0  0  0  0  0  0  0  0  0
    7.3840   -1.1584    2.7144 H   0  0  0  0  0  0  0  0  0  0  0  0
    5.7753   -0.5618    3.1390 H   0  0  0  0  0  0  0  0  0  0  0  0
    7.2613    0.1197    3.9126 H   0  0  0  0  0  0  0  0  0  0  0  0
  1  2  1  0  0  0  0
  1 40  1  0  0  0  0
  1 41  1  0  0  0  0
  1 42  1  0  0  0  0
  2  3  1  0  0  0  0
  3  4  1  0  0  0  0
  3 37  2  0  0  0  0
  4  5  2  0  0  0  0
  4 43  1  0  0  0  0
  5  6  1  0  0  0  0
  5 33  1  0  0  0  0
  6  7  2  0  0  0  0
  6  8  1  0  0  0  0
  8  9  1  0  0  0  0
  8 32  1  0  0  0  0
  9 10  1  0  0  0  0
  9 44  1  0  0  0  0
  9 45  1  0  0  0  0
 10 11  1  0  0  0  0
 10 46  1  0  0  0  0
 10 47  1  0  0  0  0
 11 12  1  0  0  0  0
 11 31  1  0  0  0  0
 12 13  1  0  0  0  0
 12 17  2  0  0  0  0
 13 14  2  0  0  0  0
 13 48  1  0  0  0  0
 14 15  1  0  0  0  0
 14 27  1  0  0  0  0
 15 16  2  0  0  0  0
 15 19  1  0  0  0  0
 16 17  1  0  0  0  0
 16 49  1  0  0  0  0
 17 18  1  0  0  0  0
 19 20  2  0  0  0  0
 19 21  1  0  0  0  0
 21 22  1  0  0  0  0
 21 26  2  0  0  0  0
 22 23  2  0  0  0  0
 22 24  1  0  0  0  0
 24 25  1  0  0  0  0
 24 50  1  0  0  0  0
 25 51  1  0  0  0  0
 26 27  1  0  0  0  0
 26 52  1  0  0  0  0
 27 28  1  0  0  0  0
 28 29  1  0  0  0  0
 28 30  1  0  0  0  0
 28 53  1  0  0  0  0
 29 30  1  0  0  0  0
 29 54  1  0  0  0  0
 29 55  1  0  0  0  0
 30 56  1  0  0  0  0
 30 57  1  0  0  0  0
 31 32  1  0  0  0  0
 31 58  1  0  0  0  0
 31 59  1  0  0  0  0
 32 60  1  0  0  0  0
 32 61  1  0  0  0  0
 33 34  2  0  0  0  0
 33 62  1  0  0  0  0
 34 35  1  0  0  0  0
 34 37  1  0  0  0  0
 35 36  1  0  0  0  0
 36 63  1  0  0  0  0
 36 64  1  0  0  0  0
 36 65  1  0  0  0  0
 37 38  1  0  0  0  0
 38 39  1  0  0  0  0
 39 66  1  0  0  0  0
 39 67  1  0  0  0  0
 39 68  1  0  0  0  0
M  END
>  <Line_Number>
193


> <IC50>
7170

$$$$
