386827
 OpenBabel09302502333D

 89 94  0  0  0  0  0  0  0  0999 V2000
    0.5452   -0.9626   -7.8733 C   0  0  0  0  0  0  0  0  0  0  0  0
    1.2821   -1.9294   -7.1393 O   0  0  0  0  0  0  0  0  0  0  0  0
    2.2661   -1.5124   -6.2043 C   0  0  0  0  0  0  0  0  0  0  0  0
    2.4905   -0.2160   -6.0248 C   0  0  0  0  0  0  0  0  0  0  0  0
    3.3360    0.2166   -5.0320 C   0  0  0  0  0  0  0  0  0  0  0  0
    3.4960    1.7072   -4.7811 C   0  0  0  0  0  0  0  0  0  0  0  0
    2.5244    2.6127   -5.0093 C   0  0  0  0  0  0  0  0  0  0  0  0
    2.7499    4.0854   -4.8247 C   0  0  0  0  0  0  0  0  0  0  0  0
    3.8708    4.5784   -4.8068 O   0  0  0  0  0  0  0  0  0  0  0  0
    1.5379    4.9505   -4.7197 C   0  0  0  0  0  0  0  0  0  0  0  0
    0.3583    4.4507   -4.1776 C   0  0  0  0  0  0  0  0  0  0  0  0
   -0.7732    5.2609   -4.0918 C   0  0  0  0  0  0  0  0  0  0  0  0
   -0.7786    6.5797   -4.5556 C   0  0  0  0  0  0  0  0  0  0  0  0
   -1.9500    7.3842   -4.5418 N   0  0  0  0  0  0  0  0  0  0  0  0
   -3.1883    6.9833   -4.0520 C   0  0  0  0  0  0  0  0  0  0  0  0
   -3.4477    5.8752   -3.5787 O   0  0  0  0  0  0  0  0  0  0  0  0
   -4.3124    8.0283   -4.0974 C   0  0  0  0  0  0  0  0  0  0  0  0
   -4.3330    8.8577   -2.8678 N   0  0  0  0  0  0  0  0  0  0  0  0
   -4.5932    8.0453   -1.6448 C   0  0  0  0  0  0  0  0  0  0  0  0
   -6.0338    7.4624   -1.4746 C   0  0  0  0  0  0  0  0  0  0  0  0
   -7.0872    8.5095   -1.6487 N   0  0  0  0  0  0  0  0  0  0  0  0
   -8.1219    8.9152   -0.7488 C   0  0  0  0  0  0  0  0  0  0  0  0
   -8.0654    9.3024    0.7794 C   0  0  0  0  0  0  0  0  0  0  0  0
   -9.3538   10.0304    1.7468 C   0  0  0  0  0  0  0  0  0  0  0  0
  -10.2320    9.5643    0.9926 C   0  0  0  0  0  0  0  0  0  0  0  0
  -10.3970    9.5281   -0.3981 C   0  0  0  0  0  0  0  0  0  0  0  0
   -9.3623    9.2128   -1.2529 C   0  0  0  0  0  0  0  0  0  0  0  0
   -9.6231    9.2461   -2.5679 F   0  0  0  0  0  0  0  0  0  0  0  0
  -10.9837    9.6678    2.0411 C   0  0  0  0  0  0  0  0  0  0  0  0
  -12.1100   10.0769    1.6179 O   0  0  0  0  0  0  0  0  0  0  0  0
  -10.7789    9.4524    3.4503 C   0  0  0  0  0  0  0  0  0  0  0  0
   -9.4318    8.9631    3.9565 C   0  0  0  0  0  0  0  0  0  0  0  0
   -9.2746    7.7307    3.6629 O   0  0  0  0  0  0  0  0  0  0  0  0
   -9.0304    9.3384    5.3021 N   0  0  0  0  0  0  0  0  0  0  0  0
   -7.9279    8.6235    5.8740 O   0  0  0  0  0  0  0  0  0  0  0  0
  -11.8506    9.7006    4.3799 C   0  0  0  0  0  0  0  0  0  0  0  0
  -10.1534   10.4927    3.5319 N   0  0  0  0  0  0  0  0  0  0  0  0
   -8.0178    9.9267    3.2855 C   0  0  0  0  0  0  0  0  0  0  0  0
   -6.4301   10.0367    3.9426 C   0  0  0  0  0  0  0  0  0  0  0  0
   -6.2971    9.3216    2.7244 C   0  0  0  0  0  0  0  0  0  0  0  0
   -6.8621    9.3496   -2.8918 C   0  0  0  0  0  0  0  0  0  0  0  0
   -5.3997    9.8895   -2.9155 C   0  0  0  0  0  0  0  0  0  0  0  0
    0.4209    7.1003   -5.0588 C   0  0  0  0  0  0  0  0  0  0  0  0
    1.5754    6.2908   -5.1322 C   0  0  0  0  0  0  0  0  0  0  0  0
    4.0356   -0.6744   -4.2665 C   0  0  0  0  0  0  0  0  0  0  0  0
    3.7309   -1.9498   -4.4233 C   0  0  0  0  0  0  0  0  0  0  0  0
    4.1815   -2.8632   -3.4339 O   0  0  0  0  0  0  0  0  0  0  0  0
    4.9330   -2.3961   -2.3212 C   0  0  0  0  0  0  0  0  0  0  0  0
    2.9618   -2.4841   -5.5115 C   0  0  0  0  0  0  0  0  0  0  0  0
    2.9788   -3.8468   -5.8535 O   0  0  0  0  0  0  0  0  0  0  0  0
    2.2847   -4.3312   -6.9883 C   0  0  0  0  0  0  0  0  0  0  0  0
   -0.1070   -1.4964   -8.5711 H   0  0  0  0  0  0  0  0  0  0  0  0
    1.2111   -0.3300   -8.4690 H   0  0  0  0  0  0  0  0  0  0  0  0
   -0.0888   -0.3627   -7.2129 H   0  0  0  0  0  0  0  0  0  0  0  0
    1.9570    0.5273   -6.6023 H   0  0  0  0  0  0  0  0  0  0  0  0
    4.4012    2.0816   -4.4563 H   0  0  0  0  0  0  0  0  0  0  0  0
    1.5419    2.3253   -5.3612 H   0  0  0  0  0  0  0  0  0  0  0  0
    0.2810    3.4373   -3.7942 H   0  0  0  0  0  0  0  0  0  0  0  0
   -1.6456    4.7987   -3.6473 H   0  0  0  0  0  0  0  0  0  0  0  0
   -1.8842    8.3074   -4.9558 H   0  0  0  0  0  0  0  0  0  0  0  0
   -5.2438    7.4632   -4.2272 H   0  0  0  0  0  0  0  0  0  0  0  0
   -4.1877    8.6449   -4.9948 H   0  0  0  0  0  0  0  0  0  0  0  0
   -4.3964    8.6938   -0.7831 H   0  0  0  0  0  0  0  0  0  0  0  0
   -3.8492    7.2453   -1.5574 H   0  0  0  0  0  0  0  0  0  0  0  0
   -6.1243    7.0090   -0.4904 H   0  0  0  0  0  0  0  0  0  0  0  0
   -6.1400    6.6391   -2.2094 H   0  0  0  0  0  0  0  0  0  0  0  0
   -7.0547    8.9224    0.9478 H   0  0  0  0  0  0  0  0  0  0  0  0
  -11.3544    9.8468   -0.7708 H   0  0  0  0  0  0  0  0  0  0  0  0
   -8.8973   10.3399    5.3360 H   0  0  0  0  0  0  0  0  0  0  0  0
   -7.4847    8.1934    5.1181 H   0  0  0  0  0  0  0  0  0  0  0  0
  -12.7081    9.8965    4.9197 H   0  0  0  0  0  0  0  0  0  0  0  0
   -7.9728    8.5699    2.8772 H   0  0  0  0  0  0  0  0  0  0  0  0
   -5.7367    9.4278    4.6743 H   0  0  0  0  0  0  0  0  0  0  0  0
   -5.8960   10.9769    3.8680 H   0  0  0  0  0  0  0  0  0  0  0  0
   -5.4392    8.3630    2.9401 H   0  0  0  0  0  0  0  0  0  0  0  0
   -5.4919    9.4818    1.8703 H   0  0  0  0  0  0  0  0  0  0  0  0
   -7.5237   10.2203   -2.8992 H   0  0  0  0  0  0  0  0  0  0  0  0
   -7.0546    8.8130   -3.8400 H   0  0  0  0  0  0  0  0  0  0  0  0
   -5.2764   10.5274   -2.0290 H   0  0  0  0  0  0  0  0  0  0  0  0
   -5.2424   10.5567   -3.7730 H   0  0  0  0  0  0  0  0  0  0  0  0
    0.4911    8.1325   -5.3947 H   0  0  0  0  0  0  0  0  0  0  0  0
    2.5025    6.7088   -5.5224 H   0  0  0  0  0  0  0  0  0  0  0  0
    4.6855   -0.2853   -3.4947 H   0  0  0  0  0  0  0  0  0  0  0  0
    5.1606   -3.2586   -1.6877 H   0  0  0  0  0  0  0  0  0  0  0  0
    4.3524   -1.6885   -1.7206 H   0  0  0  0  0  0  0  0  0  0  0  0
    5.8862   -1.9641   -2.6427 H   0  0  0  0  0  0  0  0  0  0  0  0
    2.4788   -5.4067   -7.0561 H   0  0  0  0  0  0  0  0  0  0  0  0
    2.6595   -3.8758   -7.9099 H   0  0  0  0  0  0  0  0  0  0  0  0
    1.2025   -4.2226   -6.8737 H   0  0  0  0  0  0  0  0  0  0  0  0
  1  2  1  0  0  0  0
  1 52  1  0  0  0  0
  1 53  1  0  0  0  0
  1 54  1  0  0  0  0
  2  3  1  0  0  0  0
  3  4  1  0  0  0  0
  3 49  2  0  0  0  0
  4  5  2  0  0  0  0
  4 55  1  0  0  0  0
  5  6  1  0  0  0  0
  5 45  1  0  0  0  0
  6  7  2  0  0  0  0
  6 56  1  0  0  0  0
  7  8  1  0  0  0  0
  7 57  1  0  0  0  0
  8  9  2  0  0  0  0
  8 10  1  0  0  0  0
 10 11  1  0  0  0  0
 10 44  2  0  0  0  0
 11 12  2  0  0  0  0
 11 58  1  0  0  0  0
 12 13  1  0  0  0  0
 12 59  1  0  0  0  0
 13 14  1  0  0  0  0
 13 43  2  0  0  0  0
 14 15  1  0  0  0  0
 14 60  1  0  0  0  0
 15 16  2  0  0  0  0
 15 17  1  0  0  0  0
 17 18  1  0  0  0  0
 17 61  1  0  0  0  0
 17 62  1  0  0  0  0
 18 19  1  0  0  0  0
 18 42  1  0  0  0  0
 19 20  1  0  0  0  0
 19 63  1  0  0  0  0
 19 64  1  0  0  0  0
 20 21  1  0  0  0  0
 20 65  1  0  0  0  0
 20 66  1  0  0  0  0
 21 22  1  0  0  0  0
 21 41  1  0  0  0  0
 22 23  1  0  0  0  0
 22 27  2  0  0  0  0
 23 24  2  0  0  0  0
 23 67  1  0  0  0  0
 24 25  1  0  0  0  0
 24 37  1  0  0  0  0
 25 26  2  0  0  0  0
 25 29  1  0  0  0  0
 26 27  1  0  0  0  0
 26 68  1  0  0  0  0
 27 28  1  0  0  0  0
 29 30  2  0  0  0  0
 29 31  1  0  0  0  0
 31 32  1  0  0  0  0
 31 36  2  0  0  0  0
 32 33  2  0  0  0  0
 32 34  1  0  0  0  0
 34 35  1  0  0  0  0
 34 69  1  0  0  0  0
 35 70  1  0  0  0  0
 36 37  1  0  0  0  0
 36 71  1  0  0  0  0
 37 38  1  0  0  0  0
 38 39  1  0  0  0  0
 38 40  1  0  0  0  0
 38 72  1  0  0  0  0
 39 40  1  0  0  0  0
 39 73  1  0  0  0  0
 39 74  1  0  0  0  0
 40 75  1  0  0  0  0
 40 76  1  0  0  0  0
 41 42  1  0  0  0  0
 41 77  1  0  0  0  0
 41 78  1  0  0  0  0
 42 79  1  0  0  0  0
 42 80  1  0  0  0  0
 43 44  1  0  0  0  0
 43 81  1  0  0  0  0
 44 82  1  0  0  0  0
 45 46  2  0  0  0  0
 45 83  1  0  0  0  0
 46 47  1  0  0  0  0
 46 49  1  0  0  0  0
 47 48  1  0  0  0  0
 48 84  1  0  0  0  0
 48 85  1  0  0  0  0
 48 86  1  0  0  0  0
 49 50  1  0  0  0  0
 50 51  1  0  0  0  0
 51 87  1  0  0  0  0
 51 88  1  0  0  0  0
 51 89  1  0  0  0  0
M  END
>  <Line_Number>
194


> <IC50>
949250

$$$$
