54685433.0
 OpenBabel09302502333D

 21 22  0  0  0  0  0  0  0  0999 V2000
    1.9425   -0.6823    1.0957 O   0  0  0  0  0  0  0  0  0  0  0  0
    0.9440   -0.2400    0.5544 C   0  0  0  0  0  0  0  0  0  0  0  0
    0.6777    1.0938    0.4264 O   0  0  0  0  0  0  0  0  0  0  0  0
   -0.5625    1.2600   -0.2456 C   0  0  0  0  0  0  0  0  0  0  0  0
   -1.0166   -0.1198   -0.4990 C   0  0  0  0  0  0  0  0  0  0  0  0
   -2.2181   -0.3730   -1.1113 O   0  0  0  0  0  0  0  0  0  0  0  0
   -0.1492   -1.0332   -0.0548 C   0  0  0  0  0  0  0  0  0  0  0  0
   -0.2350   -2.4967   -0.1239 C   0  0  0  0  0  0  0  0  0  0  0  0
   -0.8942   -3.1288   -1.1921 C   0  0  0  0  0  0  0  0  0  0  0  0
   -0.9728   -4.5217   -1.2732 C   0  0  0  0  0  0  0  0  0  0  0  0
   -0.3831   -5.3028   -0.2855 C   0  0  0  0  0  0  0  0  0  0  0  0
   -0.4805   -7.1859   -0.3961 Br  0  0  0  0  0  0  0  0  0  0  0  0
    0.2810   -4.7022    0.7796 C   0  0  0  0  0  0  0  0  0  0  0  0
    0.3545   -3.3067    0.8579 C   0  0  0  0  0  0  0  0  0  0  0  0
   -0.4010    1.8139   -1.1752 H   0  0  0  0  0  0  0  0  0  0  0  0
   -1.2538    1.8105    0.3988 H   0  0  0  0  0  0  0  0  0  0  0  0
   -2.6881    0.4648   -1.2726 H   0  0  0  0  0  0  0  0  0  0  0  0
   -1.3554   -2.5426   -1.9835 H   0  0  0  0  0  0  0  0  0  0  0  0
   -1.4923   -4.9785   -2.1109 H   0  0  0  0  0  0  0  0  0  0  0  0
    0.7488   -5.3045    1.5538 H   0  0  0  0  0  0  0  0  0  0  0  0
    0.8819   -2.8670    1.7029 H   0  0  0  0  0  0  0  0  0  0  0  0
  1  2  2  0  0  0  0
  2  3  1  0  0  0  0
  2  7  1  0  0  0  0
  3  4  1  0  0  0  0
  4  5  1  0  0  0  0
  4 15  1  0  0  0  0
  4 16  1  0  0  0  0
  5  6  1  0  0  0  0
  5  7  2  0  0  0  0
  6 17  1  0  0  0  0
  7  8  1  0  0  0  0
  8  9  1  0  0  0  0
  8 14  2  0  0  0  0
  9 10  2  0  0  0  0
  9 18  1  0  0  0  0
 10 11  1  0  0  0  0
 10 19  1  0  0  0  0
 11 12  1  0  0  0  0
 11 13  2  0  0  0  0
 13 14  1  0  0  0  0
 13 20  1  0  0  0  0
 14 21  1  0  0  0  0
M  END
>  <Line_Number>
195


> <IC50>
16800

$$$$
