85689664.0
 OpenBabel09302502333D

 21 22  0  0  0  0  0  0  0  0999 V2000
    1.8857   -0.5852   -1.2664 O   0  0  0  0  0  0  0  0  0  0  0  0
    0.9274   -0.1820   -0.6328 C   0  0  0  0  0  0  0  0  0  0  0  0
    0.6583    1.1346   -0.3850 O   0  0  0  0  0  0  0  0  0  0  0  0
   -0.5666    1.2378    0.3361 C   0  0  0  0  0  0  0  0  0  0  0  0
   -0.9938   -0.1652    0.5060 C   0  0  0  0  0  0  0  0  0  0  0  0
   -2.1487   -0.5035    1.1650 O   0  0  0  0  0  0  0  0  0  0  0  0
   -0.1338   -1.0181   -0.0433 C   0  0  0  0  0  0  0  0  0  0  0  0
   -0.2053   -2.4763   -0.0852 C   0  0  0  0  0  0  0  0  0  0  0  0
   -0.8633   -3.0850   -1.1669 C   0  0  0  0  0  0  0  0  0  0  0  0
   -0.9664   -4.4768   -1.2499 C   0  0  0  0  0  0  0  0  0  0  0  0
   -0.4115   -5.2716   -0.2511 C   0  0  0  0  0  0  0  0  0  0  0  0
   -0.5463   -6.9841   -0.3491 Cl  0  0  0  0  0  0  0  0  0  0  0  0
    0.2385   -4.6896    0.8339 C   0  0  0  0  0  0  0  0  0  0  0  0
    0.3322   -3.2962    0.9216 C   0  0  0  0  0  0  0  0  0  0  0  0
    1.0976   -2.6387    2.3279 Cl  0  0  0  0  0  0  0  0  0  0  0  0
   -1.2831    1.8181   -0.2524 H   0  0  0  0  0  0  0  0  0  0  0  0
   -0.3836    1.7345    1.2931 H   0  0  0  0  0  0  0  0  0  0  0  0
   -2.5566    0.2978    1.5369 H   0  0  0  0  0  0  0  0  0  0  0  0
   -1.3065   -2.4788   -1.9552 H   0  0  0  0  0  0  0  0  0  0  0  0
   -1.4811   -4.9308   -2.0936 H   0  0  0  0  0  0  0  0  0  0  0  0
    0.6598   -5.3167    1.6151 H   0  0  0  0  0  0  0  0  0  0  0  0
  1  2  2  0  0  0  0
  2  3  1  0  0  0  0
  2  7  1  0  0  0  0
  3  4  1  0  0  0  0
  4  5  1  0  0  0  0
  4 16  1  0  0  0  0
  4 17  1  0  0  0  0
  5  6  1  0  0  0  0
  5  7  2  0  0  0  0
  6 18  1  0  0  0  0
  7  8  1  0  0  0  0
  8  9  1  0  0  0  0
  8 14  2  0  0  0  0
  9 10  2  0  0  0  0
  9 19  1  0  0  0  0
 10 11  1  0  0  0  0
 10 20  1  0  0  0  0
 11 12  1  0  0  0  0
 11 13  2  0  0  0  0
 13 14  1  0  0  0  0
 13 21  1  0  0  0  0
 14 15  1  0  0  0  0
M  END
>  <Line_Number>
196


> <IC50>
100000

$$$$
