54706943.0
 OpenBabel09302502333D

 29 30  0  0  0  0  0  0  0  0999 V2000
    1.0084    0.3810    0.2564 C   0  0  0  0  0  0  0  0  0  0  0  0
    2.3321   -0.0388   -0.0564 O   0  0  0  0  0  0  0  0  0  0  0  0
    2.9459    0.5867   -1.1082 C   0  0  0  0  0  0  0  0  0  0  0  0
    2.5787    1.8634   -1.5490 C   0  0  0  0  0  0  0  0  0  0  0  0
    3.2604    2.4893   -2.5988 C   0  0  0  0  0  0  0  0  0  0  0  0
    4.3463    1.8701   -3.2230 C   0  0  0  0  0  0  0  0  0  0  0  0
    5.0682    2.5374   -4.3090 C   0  0  0  0  0  0  0  0  0  0  0  0
    5.6184    2.0219   -5.4137 C   0  0  0  0  0  0  0  0  0  0  0  0
    5.6155    0.7242   -5.8475 O   0  0  0  0  0  0  0  0  0  0  0  0
    6.2618    3.0484   -6.2567 C   0  0  0  0  0  0  0  0  0  0  0  0
    5.9944    4.2672   -5.5734 O   0  0  0  0  0  0  0  0  0  0  0  0
    5.3016    3.9974   -4.4308 C   0  0  0  0  0  0  0  0  0  0  0  0
    4.9204    4.8486   -3.6462 O   0  0  0  0  0  0  0  0  0  0  0  0
    4.7401    0.6120   -2.7461 C   0  0  0  0  0  0  0  0  0  0  0  0
    4.0382   -0.0453   -1.7210 C   0  0  0  0  0  0  0  0  0  0  0  0
    4.5695   -1.2722   -1.4119 O   0  0  0  0  0  0  0  0  0  0  0  0
    3.6649   -2.2617   -0.9359 C   0  0  0  0  0  0  0  0  0  0  0  0
    0.6075   -0.3077    1.0058 H   0  0  0  0  0  0  0  0  0  0  0  0
    0.3604    0.3312   -0.6256 H   0  0  0  0  0  0  0  0  0  0  0  0
    1.0025    1.3832    0.6963 H   0  0  0  0  0  0  0  0  0  0  0  0
    1.7773    2.4224   -1.0760 H   0  0  0  0  0  0  0  0  0  0  0  0
    2.9343    3.4834   -2.9011 H   0  0  0  0  0  0  0  0  0  0  0  0
    5.0095    0.2003   -5.2914 H   0  0  0  0  0  0  0  0  0  0  0  0
    5.8250    3.0934   -7.2587 H   0  0  0  0  0  0  0  0  0  0  0  0
    7.3437    2.9051   -6.3298 H   0  0  0  0  0  0  0  0  0  0  0  0
    5.6191    0.1152   -3.1550 H   0  0  0  0  0  0  0  0  0  0  0  0
    4.1428   -3.2372   -1.0732 H   0  0  0  0  0  0  0  0  0  0  0  0
    2.7293   -2.2724   -1.5058 H   0  0  0  0  0  0  0  0  0  0  0  0
    3.4841   -2.1422    0.1359 H   0  0  0  0  0  0  0  0  0  0  0  0
  1  2  1  0  0  0  0
  1 18  1  0  0  0  0
  1 19  1  0  0  0  0
  1 20  1  0  0  0  0
  2  3  1  0  0  0  0
  3  4  1  0  0  0  0
  3 15  2  0  0  0  0
  4  5  2  0  0  0  0
  4 21  1  0  0  0  0
  5  6  1  0  0  0  0
  5 22  1  0  0  0  0
  6  7  1  0  0  0  0
  6 14  2  0  0  0  0
  7  8  2  0  0  0  0
  7 12  1  0  0  0  0
  8  9  1  0  0  0  0
  8 10  1  0  0  0  0
  9 23  1  0  0  0  0
 10 11  1  0  0  0  0
 10 24  1  0  0  0  0
 10 25  1  0  0  0  0
 11 12  1  0  0  0  0
 12 13  2  0  0  0  0
 14 15  1  0  0  0  0
 14 26  1  0  0  0  0
 15 16  1  0  0  0  0
 16 17  1  0  0  0  0
 17 27  1  0  0  0  0
 17 28  1  0  0  0  0
 17 29  1  0  0  0  0
M  END
>  <Line_Number>
197


> <IC50>
20400

$$$$
