67482681.0
 OpenBabel09302502333D

 21 22  0  0  0  0  0  0  0  0999 V2000
    1.9402   -0.6879    1.0697 O   0  0  0  0  0  0  0  0  0  0  0  0
    0.9402   -0.2425    0.5343 C   0  0  0  0  0  0  0  0  0  0  0  0
    0.6749    1.0919    0.4134 O   0  0  0  0  0  0  0  0  0  0  0  0
   -0.5642    1.2622   -0.2590 C   0  0  0  0  0  0  0  0  0  0  0  0
   -1.0197   -0.1160   -0.5185 C   0  0  0  0  0  0  0  0  0  0  0  0
   -2.2229   -0.3641   -1.1292 O   0  0  0  0  0  0  0  0  0  0  0  0
   -0.1545   -1.0335   -0.0747 C   0  0  0  0  0  0  0  0  0  0  0  0
   -0.2487   -2.4982   -0.1313 C   0  0  0  0  0  0  0  0  0  0  0  0
   -0.9135   -3.1396   -1.1921 C   0  0  0  0  0  0  0  0  0  0  0  0
   -1.0092   -4.5328   -1.2488 C   0  0  0  0  0  0  0  0  0  0  0  0
   -0.4310   -5.2986   -0.2475 C   0  0  0  0  0  0  0  0  0  0  0  0
   -0.5237   -6.6335   -0.2993 F   0  0  0  0  0  0  0  0  0  0  0  0
    0.2431   -4.6970    0.8058 C   0  0  0  0  0  0  0  0  0  0  0  0
    0.3348   -3.3021    0.8627 C   0  0  0  0  0  0  0  0  0  0  0  0
   -0.4009    1.8213   -1.1850 H   0  0  0  0  0  0  0  0  0  0  0  0
   -1.2559    1.8101    0.3873 H   0  0  0  0  0  0  0  0  0  0  0  0
   -2.6885    0.4769   -1.2883 H   0  0  0  0  0  0  0  0  0  0  0  0
   -1.3665   -2.5602   -1.9937 H   0  0  0  0  0  0  0  0  0  0  0  0
   -1.5301   -5.0184   -2.0673 H   0  0  0  0  0  0  0  0  0  0  0  0
    0.6947   -5.3123    1.5774 H   0  0  0  0  0  0  0  0  0  0  0  0
    0.8678   -2.8572    1.7013 H   0  0  0  0  0  0  0  0  0  0  0  0
  1  2  2  0  0  0  0
  2  3  1  0  0  0  0
  2  7  1  0  0  0  0
  3  4  1  0  0  0  0
  4  5  1  0  0  0  0
  4 15  1  0  0  0  0
  4 16  1  0  0  0  0
  5  6  1  0  0  0  0
  5  7  2  0  0  0  0
  6 17  1  0  0  0  0
  7  8  1  0  0  0  0
  8  9  1  0  0  0  0
  8 14  2  0  0  0  0
  9 10  2  0  0  0  0
  9 18  1  0  0  0  0
 10 11  1  0  0  0  0
 10 19  1  0  0  0  0
 11 12  1  0  0  0  0
 11 13  2  0  0  0  0
 13 14  1  0  0  0  0
 13 20  1  0  0  0  0
 14 21  1  0  0  0  0
M  END
>  <Line_Number>
198


> <IC50>
27700

$$$$
