85518325.0
 OpenBabel09302502333D

 21 22  0  0  0  0  0  0  0  0999 V2000
    1.9336   -0.6586    1.1041 O   0  0  0  0  0  0  0  0  0  0  0  0
    0.9387   -0.2270    0.5480 C   0  0  0  0  0  0  0  0  0  0  0  0
    0.6662    1.1037    0.4038 O   0  0  0  0  0  0  0  0  0  0  0  0
   -0.5699    1.2565   -0.2783 C   0  0  0  0  0  0  0  0  0  0  0  0
   -1.0127   -0.1282   -0.5241 C   0  0  0  0  0  0  0  0  0  0  0  0
   -2.2092   -0.3955   -1.1396 O   0  0  0  0  0  0  0  0  0  0  0  0
   -0.1432   -1.0328   -0.0636 C   0  0  0  0  0  0  0  0  0  0  0  0
   -0.2304   -2.4971   -0.1072 C   0  0  0  0  0  0  0  0  0  0  0  0
   -0.8911   -3.1483   -1.1628 C   0  0  0  0  0  0  0  0  0  0  0  0
   -0.9904   -4.5420   -1.2066 C   0  0  0  0  0  0  0  0  0  0  0  0
   -0.4182   -5.3054   -0.1957 C   0  0  0  0  0  0  0  0  0  0  0  0
   -0.5459   -7.0195   -0.2426 Cl  0  0  0  0  0  0  0  0  0  0  0  0
    0.2565   -4.6865    0.8521 C   0  0  0  0  0  0  0  0  0  0  0  0
    0.3509   -3.2904    0.8937 C   0  0  0  0  0  0  0  0  0  0  0  0
   -0.4061    1.8046   -1.2108 H   0  0  0  0  0  0  0  0  0  0  0  0
   -1.2702    1.8056    0.3569 H   0  0  0  0  0  0  0  0  0  0  0  0
   -2.6815    0.4394   -1.3114 H   0  0  0  0  0  0  0  0  0  0  0  0
   -1.3417   -2.5766   -1.9716 H   0  0  0  0  0  0  0  0  0  0  0  0
   -1.5155   -5.0166   -2.0308 H   0  0  0  0  0  0  0  0  0  0  0  0
    0.7115   -5.2784    1.6416 H   0  0  0  0  0  0  0  0  0  0  0  0
    0.8832   -2.8370    1.7285 H   0  0  0  0  0  0  0  0  0  0  0  0
  1  2  2  0  0  0  0
  2  3  1  0  0  0  0
  2  7  1  0  0  0  0
  3  4  1  0  0  0  0
  4  5  1  0  0  0  0
  4 15  1  0  0  0  0
  4 16  1  0  0  0  0
  5  6  1  0  0  0  0
  5  7  2  0  0  0  0
  6 17  1  0  0  0  0
  7  8  1  0  0  0  0
  8  9  1  0  0  0  0
  8 14  2  0  0  0  0
  9 10  2  0  0  0  0
  9 18  1  0  0  0  0
 10 11  1  0  0  0  0
 10 19  1  0  0  0  0
 11 12  1  0  0  0  0
 11 13  2  0  0  0  0
 13 14  1  0  0  0  0
 13 20  1  0  0  0  0
 14 21  1  0  0  0  0
M  END
>  <Line_Number>
199


> <IC50>
18500

$$$$
