52943499.0
 OpenBabel09302502333D

 57 57  0  0  0  0  0  0  0  0999 V2000
    0.9180    0.0858    0.0249 C   0  0  0  0  0  0  0  0  0  0  0  0
    2.4350    0.0843    0.0175 C   0  0  0  0  0  0  0  0  0  0  0  0
    2.9629   -0.3332   -1.3487 C   0  0  0  0  0  0  0  0  0  0  0  0
    4.4842   -0.3361   -1.3605 C   0  0  0  0  0  0  0  0  0  0  0  0
    4.9987   -0.7525   -2.7296 C   0  0  0  0  0  0  0  0  0  0  0  0
    6.5177   -0.7549   -2.7395 C   0  0  0  0  0  0  0  0  0  0  0  0
    7.0294   -1.1706   -4.1079 C   0  0  0  0  0  0  0  0  0  0  0  0
    8.5477   -1.1719   -4.1156 C   0  0  0  0  0  0  0  0  0  0  0  0
    9.0615   -1.5874   -5.4827 C   0  0  0  0  0  0  0  0  0  0  0  0
   10.5800   -1.5887   -5.4880 C   0  0  0  0  0  0  0  0  0  0  0  0
   11.0975   -2.0041   -6.8539 C   0  0  0  0  0  0  0  0  0  0  0  0
   12.6178   -2.0048   -6.8551 C   0  0  0  0  0  0  0  0  0  0  0  0
   13.1399   -2.4174   -8.2203 C   0  0  0  0  0  0  0  0  0  0  0  0
   14.6653   -2.4204   -8.2333 C   0  0  0  0  0  0  0  0  0  0  0  0
   15.1575   -2.8466   -9.5869 C   0  0  0  0  0  0  0  0  0  0  0  0
   15.3978   -1.8976  -10.5961 C   0  0  0  0  0  0  0  0  0  0  0  0
   15.7602   -2.3046  -11.8918 C   0  0  0  0  0  0  0  0  0  0  0  0
   15.8741   -3.6616  -12.1736 C   0  0  0  0  0  0  0  0  0  0  0  0
   16.1959   -4.1186  -13.4204 O   0  0  0  0  0  0  0  0  0  0  0  0
   15.6443   -4.5968  -11.1756 C   0  0  0  0  0  0  0  0  0  0  0  0
   15.7273   -5.9434  -11.3963 O   0  0  0  0  0  0  0  0  0  0  0  0
   15.2921   -4.1965   -9.9000 C   0  0  0  0  0  0  0  0  0  0  0  0
   15.0562   -5.1738   -8.9775 O   0  0  0  0  0  0  0  0  0  0  0  0
    0.5439    0.3860    1.0072 H   0  0  0  0  0  0  0  0  0  0  0  0
    0.5283   -0.9115   -0.2027 H   0  0  0  0  0  0  0  0  0  0  0  0
    0.5274    0.7849   -0.7215 H   0  0  0  0  0  0  0  0  0  0  0  0
    2.8049   -0.6035    0.7869 H   0  0  0  0  0  0  0  0  0  0  0  0
    2.8040    1.0851    0.2705 H   0  0  0  0  0  0  0  0  0  0  0  0
    2.5904    0.3541   -2.1183 H   0  0  0  0  0  0  0  0  0  0  0  0
    2.5913   -1.3337   -1.6023 H   0  0  0  0  0  0  0  0  0  0  0  0
    4.8630   -1.0265   -0.5970 H   0  0  0  0  0  0  0  0  0  0  0  0
    4.8623    0.6630   -1.1112 H   0  0  0  0  0  0  0  0  0  0  0  0
    4.6237   -0.0631   -3.4961 H   0  0  0  0  0  0  0  0  0  0  0  0
    4.6244   -1.7523   -2.9821 H   0  0  0  0  0  0  0  0  0  0  0  0
    6.8954   -1.4451   -1.9754 H   0  0  0  0  0  0  0  0  0  0  0  0
    6.8943    0.2445   -2.4892 H   0  0  0  0  0  0  0  0  0  0  0  0
    6.6522   -0.4796   -4.8719 H   0  0  0  0  0  0  0  0  0  0  0  0
    6.6546   -2.1705   -4.3594 H   0  0  0  0  0  0  0  0  0  0  0  0
    8.9248   -1.8614   -3.3500 H   0  0  0  0  0  0  0  0  0  0  0  0
    8.9221   -0.1720   -3.8636 H   0  0  0  0  0  0  0  0  0  0  0  0
    8.6855   -0.8978   -6.2484 H   0  0  0  0  0  0  0  0  0  0  0  0
    8.6868   -2.5873   -5.7338 H   0  0  0  0  0  0  0  0  0  0  0  0
   10.9544   -2.2783   -4.7215 H   0  0  0  0  0  0  0  0  0  0  0  0
   10.9539   -0.5889   -5.2355 H   0  0  0  0  0  0  0  0  0  0  0  0
   10.7224   -1.3138   -7.6196 H   0  0  0  0  0  0  0  0  0  0  0  0
   10.7214   -3.0036   -7.1067 H   0  0  0  0  0  0  0  0  0  0  0  0
   12.9885   -2.6971   -6.0894 H   0  0  0  0  0  0  0  0  0  0  0  0
   12.9907   -1.0057   -6.5997 H   0  0  0  0  0  0  0  0  0  0  0  0
   12.7561   -1.7310   -8.9863 H   0  0  0  0  0  0  0  0  0  0  0  0
   12.7530   -3.4138   -8.4721 H   0  0  0  0  0  0  0  0  0  0  0  0
   15.0527   -3.0974   -7.4618 H   0  0  0  0  0  0  0  0  0  0  0  0
   15.0542   -1.4254   -7.9855 H   0  0  0  0  0  0  0  0  0  0  0  0
   15.2847   -0.8357  -10.3830 H   0  0  0  0  0  0  0  0  0  0  0  0
   15.9309   -1.5502  -12.6513 H   0  0  0  0  0  0  0  0  0  0  0  0
   16.2999   -3.3504  -14.0092 H   0  0  0  0  0  0  0  0  0  0  0  0
   15.9603   -6.0105  -12.3446 H   0  0  0  0  0  0  0  0  0  0  0  0
   15.2087   -6.0133   -9.4577 H   0  0  0  0  0  0  0  0  0  0  0  0
  1  2  1  0  0  0  0
  1 24  1  0  0  0  0
  1 25  1  0  0  0  0
  1 26  1  0  0  0  0
  2  3  1  0  0  0  0
  2 27  1  0  0  0  0
  2 28  1  0  0  0  0
  3  4  1  0  0  0  0
  3 29  1  0  0  0  0
  3 30  1  0  0  0  0
  4  5  1  0  0  0  0
  4 31  1  0  0  0  0
  4 32  1  0  0  0  0
  5  6  1  0  0  0  0
  5 33  1  0  0  0  0
  5 34  1  0  0  0  0
  6  7  1  0  0  0  0
  6 35  1  0  0  0  0
  6 36  1  0  0  0  0
  7  8  1  0  0  0  0
  7 37  1  0  0  0  0
  7 38  1  0  0  0  0
  8  9  1  0  0  0  0
  8 39  1  0  0  0  0
  8 40  1  0  0  0  0
  9 10  1  0  0  0  0
  9 41  1  0  0  0  0
  9 42  1  0  0  0  0
 10 11  1  0  0  0  0
 10 43  1  0  0  0  0
 10 44  1  0  0  0  0
 11 12  1  0  0  0  0
 11 45  1  0  0  0  0
 11 46  1  0  0  0  0
 12 13  1  0  0  0  0
 12 47  1  0  0  0  0
 12 48  1  0  0  0  0
 13 14  1  0  0  0  0
 13 49  1  0  0  0  0
 13 50  1  0  0  0  0
 14 15  1  0  0  0  0
 14 51  1  0  0  0  0
 14 52  1  0  0  0  0
 15 16  1  0  0  0  0
 15 22  2  0  0  0  0
 16 17  2  0  0  0  0
 16 53  1  0  0  0  0
 17 18  1  0  0  0  0
 17 54  1  0  0  0  0
 18 19  1  0  0  0  0
 18 20  2  0  0  0  0
 19 55  1  0  0  0  0
 20 21  1  0  0  0  0
 20 22  1  0  0  0  0
 21 56  1  0  0  0  0
 22 23  1  0  0  0  0
 23 57  1  0  0  0  0
M  END
>  <Line_Number>
19


> <IC50>
250000

$$$$
