20035379.0
 OpenBabel09302502333D

 51 51  0  0  0  0  0  0  0  0999 V2000
    0.9150   -0.0189   -0.0487 C   0  0  0  0  0  0  0  0  0  0  0  0
    2.4327   -0.0104   -0.0229 C   0  0  0  0  0  0  0  0  0  0  0  0
    2.9660   -1.0980    0.9027 C   0  0  0  0  0  0  0  0  0  0  0  0
    4.4893   -1.0916    0.9304 C   0  0  0  0  0  0  0  0  0  0  0  0
    5.0106   -2.1828    1.8564 C   0  0  0  0  0  0  0  0  0  0  0  0
    6.5319   -2.1747    1.8827 C   0  0  0  0  0  0  0  0  0  0  0  0
    7.0569   -3.2628    2.8067 C   0  0  0  0  0  0  0  0  0  0  0  0
    8.5778   -3.2436    2.8237 C   0  0  0  0  0  0  0  0  0  0  0  0
    9.1108   -4.3288    3.7440 C   0  0  0  0  0  0  0  0  0  0  0  0
   10.6346   -4.3140    3.7642 C   0  0  0  0  0  0  0  0  0  0  0  0
   11.1437   -5.4115    4.6886 C   0  0  0  0  0  0  0  0  0  0  0  0
   12.6695   -5.4355    4.7481 C   0  0  0  0  0  0  0  0  0  0  0  0
   13.1279   -6.5343    5.6733 C   0  0  0  0  0  0  0  0  0  0  0  0
   13.3147   -6.2826    7.0420 C   0  0  0  0  0  0  0  0  0  0  0  0
   13.6289   -7.3215    7.9278 C   0  0  0  0  0  0  0  0  0  0  0  0
   13.7426   -8.6192    7.4383 C   0  0  0  0  0  0  0  0  0  0  0  0
   14.0103   -9.6817    8.2581 O   0  0  0  0  0  0  0  0  0  0  0  0
   13.5694   -8.8749    6.0871 C   0  0  0  0  0  0  0  0  0  0  0  0
   13.6533  -10.1507    5.5944 O   0  0  0  0  0  0  0  0  0  0  0  0
   13.2787   -7.8417    5.2037 C   0  0  0  0  0  0  0  0  0  0  0  0
   13.1125   -8.1296    3.8803 O   0  0  0  0  0  0  0  0  0  0  0  0
    0.5428    0.7646   -0.7148 H   0  0  0  0  0  0  0  0  0  0  0  0
    0.5075    0.1590    0.9517 H   0  0  0  0  0  0  0  0  0  0  0  0
    0.5370   -0.9819   -0.4069 H   0  0  0  0  0  0  0  0  0  0  0  0
    2.7863    0.9714    0.3128 H   0  0  0  0  0  0  0  0  0  0  0  0
    2.8156   -0.1643   -1.0385 H   0  0  0  0  0  0  0  0  0  0  0  0
    2.6090   -2.0793    0.5667 H   0  0  0  0  0  0  0  0  0  0  0  0
    2.5797   -0.9439    1.9178 H   0  0  0  0  0  0  0  0  0  0  0  0
    4.8519   -0.1139    1.2709 H   0  0  0  0  0  0  0  0  0  0  0  0
    4.8813   -1.2479   -0.0821 H   0  0  0  0  0  0  0  0  0  0  0  0
    4.6516   -3.1625    1.5176 H   0  0  0  0  0  0  0  0  0  0  0  0
    4.6222   -2.0283    2.8705 H   0  0  0  0  0  0  0  0  0  0  0  0
    6.8924   -1.1959    2.2225 H   0  0  0  0  0  0  0  0  0  0  0  0
    6.9222   -2.3297    0.8693 H   0  0  0  0  0  0  0  0  0  0  0  0
    6.6988   -4.2439    2.4693 H   0  0  0  0  0  0  0  0  0  0  0  0
    6.6699   -3.1094    3.8218 H   0  0  0  0  0  0  0  0  0  0  0  0
    8.9331   -2.2630    3.1620 H   0  0  0  0  0  0  0  0  0  0  0  0
    8.9623   -3.3971    1.8082 H   0  0  0  0  0  0  0  0  0  0  0  0
    8.7539   -5.3091    3.4046 H   0  0  0  0  0  0  0  0  0  0  0  0
    8.7231   -4.1785    4.7593 H   0  0  0  0  0  0  0  0  0  0  0  0
   10.9956   -3.3358    4.1033 H   0  0  0  0  0  0  0  0  0  0  0  0
   11.0198   -4.4712    2.7494 H   0  0  0  0  0  0  0  0  0  0  0  0
   10.7598   -6.3780    4.3371 H   0  0  0  0  0  0  0  0  0  0  0  0
   10.7313   -5.2591    5.6945 H   0  0  0  0  0  0  0  0  0  0  0  0
   13.0510   -4.4681    5.0977 H   0  0  0  0  0  0  0  0  0  0  0  0
   13.0923   -5.5845    3.7478 H   0  0  0  0  0  0  0  0  0  0  0  0
   13.1928   -5.2734    7.4307 H   0  0  0  0  0  0  0  0  0  0  0  0
   13.7654   -7.0989    8.9805 H   0  0  0  0  0  0  0  0  0  0  0  0
   14.1047   -9.3455    9.1650 H   0  0  0  0  0  0  0  0  0  0  0  0
   13.8158  -10.6989    6.3898 H   0  0  0  0  0  0  0  0  0  0  0  0
   13.2252   -9.1028    3.8274 H   0  0  0  0  0  0  0  0  0  0  0  0
  1  2  1  0  0  0  0
  1 22  1  0  0  0  0
  1 23  1  0  0  0  0
  1 24  1  0  0  0  0
  2  3  1  0  0  0  0
  2 25  1  0  0  0  0
  2 26  1  0  0  0  0
  3  4  1  0  0  0  0
  3 27  1  0  0  0  0
  3 28  1  0  0  0  0
  4  5  1  0  0  0  0
  4 29  1  0  0  0  0
  4 30  1  0  0  0  0
  5  6  1  0  0  0  0
  5 31  1  0  0  0  0
  5 32  1  0  0  0  0
  6  7  1  0  0  0  0
  6 33  1  0  0  0  0
  6 34  1  0  0  0  0
  7  8  1  0  0  0  0
  7 35  1  0  0  0  0
  7 36  1  0  0  0  0
  8  9  1  0  0  0  0
  8 37  1  0  0  0  0
  8 38  1  0  0  0  0
  9 10  1  0  0  0  0
  9 39  1  0  0  0  0
  9 40  1  0  0  0  0
 10 11  1  0  0  0  0
 10 41  1  0  0  0  0
 10 42  1  0  0  0  0
 11 12  1  0  0  0  0
 11 43  1  0  0  0  0
 11 44  1  0  0  0  0
 12 13  1  0  0  0  0
 12 45  1  0  0  0  0
 12 46  1  0  0  0  0
 13 14  1  0  0  0  0
 13 20  2  0  0  0  0
 14 15  2  0  0  0  0
 14 47  1  0  0  0  0
 15 16  1  0  0  0  0
 15 48  1  0  0  0  0
 16 17  1  0  0  0  0
 16 18  2  0  0  0  0
 17 49  1  0  0  0  0
 18 19  1  0  0  0  0
 18 20  1  0  0  0  0
 19 50  1  0  0  0  0
 20 21  1  0  0  0  0
 21 51  1  0  0  0  0
M  END
>  <Line_Number>
1


> <IC50>
168000

$$$$
