85518320.0
 OpenBabel09302502333D

 21 22  0  0  0  0  0  0  0  0999 V2000
    1.9332   -0.6179   -1.1542 O   0  0  0  0  0  0  0  0  0  0  0  0
    0.9333   -0.2096   -0.5908 C   0  0  0  0  0  0  0  0  0  0  0  0
    0.6663    1.1069   -0.3378 O   0  0  0  0  0  0  0  0  0  0  0  0
   -0.5755    1.2099    0.3559 C   0  0  0  0  0  0  0  0  0  0  0  0
   -1.0107   -0.1911    0.5132 C   0  0  0  0  0  0  0  0  0  0  0  0
   -2.1722   -0.5323    1.1528 O   0  0  0  0  0  0  0  0  0  0  0  0
   -0.1527   -1.0405   -0.0517 C   0  0  0  0  0  0  0  0  0  0  0  0
   -0.2532   -2.4903   -0.1478 C   0  0  0  0  0  0  0  0  0  0  0  0
    0.2989   -3.2768    0.8737 C   0  0  0  0  0  0  0  0  0  0  0  0
    0.1910   -4.6689    0.8358 C   0  0  0  0  0  0  0  0  0  0  0  0
   -0.4731   -5.2898   -0.2198 C   0  0  0  0  0  0  0  0  0  0  0  0
   -1.0186   -4.5201   -1.2472 C   0  0  0  0  0  0  0  0  0  0  0  0
   -0.9063   -3.1264   -1.2161 C   0  0  0  0  0  0  0  0  0  0  0  0
   -1.5934   -2.2331   -2.5297 Cl  0  0  0  0  0  0  0  0  0  0  0  0
   -1.2776    1.7930   -0.2471 H   0  0  0  0  0  0  0  0  0  0  0  0
   -0.4126    1.7041    1.3177 H   0  0  0  0  0  0  0  0  0  0  0  0
   -2.6429    0.2752    1.4266 H   0  0  0  0  0  0  0  0  0  0  0  0
    0.8171   -2.8095    1.7086 H   0  0  0  0  0  0  0  0  0  0  0  0
    0.6241   -5.2678    1.6332 H   0  0  0  0  0  0  0  0  0  0  0  0
   -0.5637   -6.3730   -0.2448 H   0  0  0  0  0  0  0  0  0  0  0  0
   -1.5313   -5.0115   -2.0702 H   0  0  0  0  0  0  0  0  0  0  0  0
  1  2  2  0  0  0  0
  2  3  1  0  0  0  0
  2  7  1  0  0  0  0
  3  4  1  0  0  0  0
  4  5  1  0  0  0  0
  4 15  1  0  0  0  0
  4 16  1  0  0  0  0
  5  6  1  0  0  0  0
  5  7  2  0  0  0  0
  6 17  1  0  0  0  0
  7  8  1  0  0  0  0
  8  9  1  0  0  0  0
  8 13  2  0  0  0  0
  9 10  2  0  0  0  0
  9 18  1  0  0  0  0
 10 11  1  0  0  0  0
 10 19  1  0  0  0  0
 11 12  2  0  0  0  0
 11 20  1  0  0  0  0
 12 13  1  0  0  0  0
 12 21  1  0  0  0  0
 13 14  1  0  0  0  0
M  END
>  <Line_Number>
200


> <IC50>
100000

$$$$
