122185041.0
 OpenBabel09302502333D

 35 36  0  0  0  0  0  0  0  0999 V2000
    1.0525    0.9899   -0.5923 C   0  0  0  0  0  0  0  0  0  0  0  0
    2.5661    1.0993   -0.6277 C   0  0  0  0  0  0  0  0  0  0  0  0
    3.0609    1.1392    0.7120 O   0  0  0  0  0  0  0  0  0  0  0  0
    4.4119    1.3202    0.8759 C   0  0  0  0  0  0  0  0  0  0  0  0
    5.3117    1.3657   -0.1975 C   0  0  0  0  0  0  0  0  0  0  0  0
    6.6694    1.6179    0.0086 C   0  0  0  0  0  0  0  0  0  0  0  0
    7.1593    1.8325    1.2961 C   0  0  0  0  0  0  0  0  0  0  0  0
    8.5741    2.1100    1.4786 C   0  0  0  0  0  0  0  0  0  0  0  0
    9.2041    3.2832    1.4414 C   0  0  0  0  0  0  0  0  0  0  0  0
    8.6605    4.5281    1.2742 O   0  0  0  0  0  0  0  0  0  0  0  0
   10.6673    3.1270    1.5594 C   0  0  0  0  0  0  0  0  0  0  0  0
   10.8493    1.7170    1.6860 O   0  0  0  0  0  0  0  0  0  0  0  0
    9.6348    1.0967    1.6320 C   0  0  0  0  0  0  0  0  0  0  0  0
    9.4641   -0.1071    1.6871 O   0  0  0  0  0  0  0  0  0  0  0  0
    6.2752    1.7764    2.3758 C   0  0  0  0  0  0  0  0  0  0  0  0
    4.9125    1.4900    2.1803 C   0  0  0  0  0  0  0  0  0  0  0  0
    4.1972    1.4518    3.3517 O   0  0  0  0  0  0  0  0  0  0  0  0
    3.0881    0.5528    3.3969 C   0  0  0  0  0  0  0  0  0  0  0  0
    2.9054    0.0946    4.8356 C   0  0  0  0  0  0  0  0  0  0  0  0
    0.6479    0.9715   -1.6097 H   0  0  0  0  0  0  0  0  0  0  0  0
    0.6162    1.8362   -0.0543 H   0  0  0  0  0  0  0  0  0  0  0  0
    0.7428    0.0787   -0.0732 H   0  0  0  0  0  0  0  0  0  0  0  0
    2.8376    2.0185   -1.1600 H   0  0  0  0  0  0  0  0  0  0  0  0
    2.9691    0.2247   -1.1512 H   0  0  0  0  0  0  0  0  0  0  0  0
    4.9925    1.2074   -1.2229 H   0  0  0  0  0  0  0  0  0  0  0  0
    7.3383    1.6398   -0.8501 H   0  0  0  0  0  0  0  0  0  0  0  0
    7.6890    4.4449    1.2425 H   0  0  0  0  0  0  0  0  0  0  0  0
   11.0710    3.6229    2.4452 H   0  0  0  0  0  0  0  0  0  0  0  0
   11.1923    3.4765    0.6642 H   0  0  0  0  0  0  0  0  0  0  0  0
    6.6377    1.9296    3.3909 H   0  0  0  0  0  0  0  0  0  0  0  0
    3.2505   -0.3347    2.7743 H   0  0  0  0  0  0  0  0  0  0  0  0
    2.1856    1.0821    3.0745 H   0  0  0  0  0  0  0  0  0  0  0  0
    3.7844   -0.4639    5.1744 H   0  0  0  0  0  0  0  0  0  0  0  0
    2.0260   -0.5487    4.9301 H   0  0  0  0  0  0  0  0  0  0  0  0
    2.7933    0.9517    5.5096 H   0  0  0  0  0  0  0  0  0  0  0  0
  1  2  1  0  0  0  0
  1 20  1  0  0  0  0
  1 21  1  0  0  0  0
  1 22  1  0  0  0  0
  2  3  1  0  0  0  0
  2 23  1  0  0  0  0
  2 24  1  0  0  0  0
  3  4  1  0  0  0  0
  4  5  1  0  0  0  0
  4 16  2  0  0  0  0
  5  6  2  0  0  0  0
  5 25  1  0  0  0  0
  6  7  1  0  0  0  0
  6 26  1  0  0  0  0
  7  8  1  0  0  0  0
  7 15  2  0  0  0  0
  8  9  2  0  0  0  0
  8 13  1  0  0  0  0
  9 10  1  0  0  0  0
  9 11  1  0  0  0  0
 10 27  1  0  0  0  0
 11 12  1  0  0  0  0
 11 28  1  0  0  0  0
 11 29  1  0  0  0  0
 12 13  1  0  0  0  0
 13 14  2  0  0  0  0
 15 16  1  0  0  0  0
 15 30  1  0  0  0  0
 16 17  1  0  0  0  0
 17 18  1  0  0  0  0
 18 19  1  0  0  0  0
 18 31  1  0  0  0  0
 18 32  1  0  0  0  0
 19 33  1  0  0  0  0
 19 34  1  0  0  0  0
 19 35  1  0  0  0  0
M  END
>  <Line_Number>
201


> <IC50>
23400

$$$$
