122185032.0
 OpenBabel09302502333D

 35 37  0  0  0  0  0  0  0  0999 V2000
    1.9971   -0.6712    0.9931 O   0  0  0  0  0  0  0  0  0  0  0  0
    0.9726   -0.2221    0.5081 C   0  0  0  0  0  0  0  0  0  0  0  0
    0.6968    1.1111    0.4132 O   0  0  0  0  0  0  0  0  0  0  0  0
   -0.5790    1.2824   -0.1919 C   0  0  0  0  0  0  0  0  0  0  0  0
   -1.0449   -0.0937   -0.4398 C   0  0  0  0  0  0  0  0  0  0  0  0
   -2.2701   -0.3493   -1.0009 O   0  0  0  0  0  0  0  0  0  0  0  0
   -0.1517   -1.0056   -0.0582 C   0  0  0  0  0  0  0  0  0  0  0  0
   -0.2365   -2.4628   -0.1536 C   0  0  0  0  0  0  0  0  0  0  0  0
   -0.9078   -3.1025   -1.2030 C   0  0  0  0  0  0  0  0  0  0  0  0
   -0.9234   -4.4959   -1.2999 C   0  0  0  0  0  0  0  0  0  0  0  0
   -0.2390   -5.2692   -0.3623 C   0  0  0  0  0  0  0  0  0  0  0  0
    0.4580   -4.6460    0.6706 C   0  0  0  0  0  0  0  0  0  0  0  0
    1.1833   -5.4488    1.5133 O   0  0  0  0  0  0  0  0  0  0  0  0
    2.2938   -4.7751    2.1241 C   0  0  0  0  0  0  0  0  0  0  0  0
    3.3254   -5.7736    2.5673 C   0  0  0  0  0  0  0  0  0  0  0  0
    4.6258   -5.7228    2.0431 C   0  0  0  0  0  0  0  0  0  0  0  0
    5.5959   -6.6186    2.4849 C   0  0  0  0  0  0  0  0  0  0  0  0
    5.2739   -7.5684    3.4522 C   0  0  0  0  0  0  0  0  0  0  0  0
    3.9817   -7.6296    3.9738 C   0  0  0  0  0  0  0  0  0  0  0  0
    3.0088   -6.7349    3.5338 C   0  0  0  0  0  0  0  0  0  0  0  0
    0.4119   -3.2558    0.7939 C   0  0  0  0  0  0  0  0  0  0  0  0
   -0.4654    1.8437   -1.1231 H   0  0  0  0  0  0  0  0  0  0  0  0
   -1.2346    1.8246    0.4946 H   0  0  0  0  0  0  0  0  0  0  0  0
   -2.7528    0.4822   -1.1217 H   0  0  0  0  0  0  0  0  0  0  0  0
   -1.4215   -2.5207   -1.9644 H   0  0  0  0  0  0  0  0  0  0  0  0
   -1.4531   -4.9704   -2.1218 H   0  0  0  0  0  0  0  0  0  0  0  0
   -0.2301   -6.3519   -0.4574 H   0  0  0  0  0  0  0  0  0  0  0  0
    1.9540   -4.2084    3.0014 H   0  0  0  0  0  0  0  0  0  0  0  0
    2.7680   -4.0818    1.4163 H   0  0  0  0  0  0  0  0  0  0  0  0
    4.8902   -4.9811    1.2913 H   0  0  0  0  0  0  0  0  0  0  0  0
    6.6018   -6.5728    2.0765 H   0  0  0  0  0  0  0  0  0  0  0  0
    6.0322   -8.2635    3.8004 H   0  0  0  0  0  0  0  0  0  0  0  0
    3.7312   -8.3732    4.7246 H   0  0  0  0  0  0  0  0  0  0  0  0
    2.0024   -6.7833    3.9444 H   0  0  0  0  0  0  0  0  0  0  0  0
    0.9061   -2.7716    1.6307 H   0  0  0  0  0  0  0  0  0  0  0  0
  1  2  2  0  0  0  0
  2  3  1  0  0  0  0
  2  7  1  0  0  0  0
  3  4  1  0  0  0  0
  4  5  1  0  0  0  0
  4 22  1  0  0  0  0
  4 23  1  0  0  0  0
  5  6  1  0  0  0  0
  5  7  2  0  0  0  0
  6 24  1  0  0  0  0
  7  8  1  0  0  0  0
  8  9  1  0  0  0  0
  8 21  2  0  0  0  0
  9 10  2  0  0  0  0
  9 25  1  0  0  0  0
 10 11  1  0  0  0  0
 10 26  1  0  0  0  0
 11 12  2  0  0  0  0
 11 27  1  0  0  0  0
 12 13  1  0  0  0  0
 12 21  1  0  0  0  0
 13 14  1  0  0  0  0
 14 15  1  0  0  0  0
 14 28  1  0  0  0  0
 14 29  1  0  0  0  0
 15 16  1  0  0  0  0
 15 20  2  0  0  0  0
 16 17  2  0  0  0  0
 16 30  1  0  0  0  0
 17 18  1  0  0  0  0
 17 31  1  0  0  0  0
 18 19  2  0  0  0  0
 18 32  1  0  0  0  0
 19 20  1  0  0  0  0
 19 33  1  0  0  0  0
 20 34  1  0  0  0  0
 21 35  1  0  0  0  0
M  END
>  <Line_Number>
202


> <IC50>
31500

$$$$
