85518344.0
 OpenBabel09302502333D

 21 22  0  0  0  0  0  0  0  0999 V2000
   -2.1638   -0.3441   -1.1386 O   0  0  0  0  0  0  0  0  0  0  0  0
   -1.1310   -0.0643   -0.5556 C   0  0  0  0  0  0  0  0  0  0  0  0
   -0.7191    1.2131   -0.3052 O   0  0  0  0  0  0  0  0  0  0  0  0
    0.5197    1.1768    0.3889 C   0  0  0  0  0  0  0  0  0  0  0  0
    0.8120   -0.2633    0.5170 C   0  0  0  0  0  0  0  0  0  0  0  0
    1.9673   -0.7069    1.1080 O   0  0  0  0  0  0  0  0  0  0  0  0
   -0.1442   -1.0293   -0.0175 C   0  0  0  0  0  0  0  0  0  0  0  0
   -0.2168   -2.4937   -0.1001 C   0  0  0  0  0  0  0  0  0  0  0  0
   -0.8595   -3.1276   -1.1733 C   0  0  0  0  0  0  0  0  0  0  0  0
   -0.9245   -4.5238   -1.2532 C   0  0  0  0  0  0  0  0  0  0  0  0
   -0.3498   -5.3136   -0.2570 C   0  0  0  0  0  0  0  0  0  0  0  0
   -0.4545   -7.0291   -0.4244 Cl  0  0  0  0  0  0  0  0  0  0  0  0
    0.2827   -4.7010    0.8264 C   0  0  0  0  0  0  0  0  0  0  0  0
    1.0109   -5.6058    2.1070 Cl  0  0  0  0  0  0  0  0  0  0  0  0
    0.3426   -3.3036    0.9021 C   0  0  0  0  0  0  0  0  0  0  0  0
    0.4042    1.6606    1.3633 H   0  0  0  0  0  0  0  0  0  0  0  0
    1.2797    1.7014   -0.1973 H   0  0  0  0  0  0  0  0  0  0  0  0
    2.5152    0.0554    1.3697 H   0  0  0  0  0  0  0  0  0  0  0  0
   -1.3190   -2.5469   -1.9726 H   0  0  0  0  0  0  0  0  0  0  0  0
   -1.4277   -4.9853   -2.1000 H   0  0  0  0  0  0  0  0  0  0  0  0
    0.8335   -2.8488    1.7602 H   0  0  0  0  0  0  0  0  0  0  0  0
  1  2  2  0  0  0  0
  2  3  1  0  0  0  0
  2  7  1  0  0  0  0
  3  4  1  0  0  0  0
  4  5  1  0  0  0  0
  4 16  1  0  0  0  0
  4 17  1  0  0  0  0
  5  6  1  0  0  0  0
  5  7  2  0  0  0  0
  6 18  1  0  0  0  0
  7  8  1  0  0  0  0
  8  9  1  0  0  0  0
  8 15  2  0  0  0  0
  9 10  2  0  0  0  0
  9 19  1  0  0  0  0
 10 11  1  0  0  0  0
 10 20  1  0  0  0  0
 11 12  1  0  0  0  0
 11 13  2  0  0  0  0
 13 14  1  0  0  0  0
 13 15  1  0  0  0  0
 15 21  1  0  0  0  0
M  END
>  <Line_Number>
203


> <IC50>
28700

$$$$
