22353732.0
 OpenBabel09302502333D

 31 32  0  0  0  0  0  0  0  0999 V2000
    1.6190    0.7782    0.4372 O   0  0  0  0  0  0  0  0  0  0  0  0
    2.2521    0.0244   -0.3179 N   0  3  0  0  0  0  0  0  0  0  0  0
    2.2873    0.1341   -1.5509 O   0  5  0  0  0  0  0  0  0  0  0  0
    3.0142   -1.0724    0.2951 C   0  0  0  0  0  0  0  0  0  0  0  0
    2.9996   -1.2364    1.6853 C   0  0  0  0  0  0  0  0  0  0  0  0
    3.7397   -2.2719    2.2667 C   0  0  0  0  0  0  0  0  0  0  0  0
    4.4972   -3.1457    1.4715 C   0  0  0  0  0  0  0  0  0  0  0  0
    5.3436   -4.2307    2.1080 C   0  0  0  0  0  0  0  0  0  0  0  0
    4.9108   -5.5434    1.6492 N   0  0  0  0  0  0  0  0  0  0  0  0
    5.5099   -6.7057    2.1412 C   0  0  0  0  0  0  0  0  0  0  0  0
    6.6649   -6.7198    2.9341 C   0  0  0  0  0  0  0  0  0  0  0  0
    7.2367   -7.9245    3.3679 C   0  0  0  0  0  0  0  0  0  0  0  0
    6.6725   -9.1402    2.9708 C   0  0  0  0  0  0  0  0  0  0  0  0
    7.2604  -10.4047    3.4311 N   0  3  0  0  0  0  0  0  0  0  0  0
    8.2490  -10.3438    4.1760 O   0  0  0  0  0  0  0  0  0  0  0  0
    6.7297  -11.4595    3.0528 O   0  5  0  0  0  0  0  0  0  0  0  0
    5.5554   -9.1556    2.1339 C   0  0  0  0  0  0  0  0  0  0  0  0
    4.9911   -7.9423    1.7213 C   0  0  0  0  0  0  0  0  0  0  0  0
    4.4925   -2.9725    0.0760 C   0  0  0  0  0  0  0  0  0  0  0  0
    3.7556   -1.9411   -0.5149 C   0  0  0  0  0  0  0  0  0  0  0  0
    2.4294   -0.5666    2.3268 H   0  0  0  0  0  0  0  0  0  0  0  0
    3.7273   -2.3828    3.3497 H   0  0  0  0  0  0  0  0  0  0  0  0
    5.2668   -4.1665    3.1997 H   0  0  0  0  0  0  0  0  0  0  0  0
    6.3891   -4.0488    1.8296 H   0  0  0  0  0  0  0  0  0  0  0  0
    3.8972   -5.6311    1.6066 H   0  0  0  0  0  0  0  0  0  0  0  0
    7.1403   -5.7953    3.2500 H   0  0  0  0  0  0  0  0  0  0  0  0
    8.1162   -7.8918    4.0080 H   0  0  0  0  0  0  0  0  0  0  0  0
    5.1144  -10.0891    1.7911 H   0  0  0  0  0  0  0  0  0  0  0  0
    4.1346   -7.9685    1.0495 H   0  0  0  0  0  0  0  0  0  0  0  0
    5.0742   -3.6445   -0.5552 H   0  0  0  0  0  0  0  0  0  0  0  0
    3.7764   -1.8270   -1.5968 H   0  0  0  0  0  0  0  0  0  0  0  0
  1  2  2  0  0  0  0
  2  3  1  0  0  0  0
  2  4  1  0  0  0  0
  4  5  1  0  0  0  0
  4 20  2  0  0  0  0
  5  6  2  0  0  0  0
  5 21  1  0  0  0  0
  6  7  1  0  0  0  0
  6 22  1  0  0  0  0
  7  8  1  0  0  0  0
  7 19  2  0  0  0  0
  8  9  1  0  0  0  0
  8 23  1  0  0  0  0
  8 24  1  0  0  0  0
  9 10  1  0  0  0  0
  9 25  1  0  0  0  0
 10 11  1  0  0  0  0
 10 18  2  0  0  0  0
 11 12  2  0  0  0  0
 11 26  1  0  0  0  0
 12 13  1  0  0  0  0
 12 27  1  0  0  0  0
 13 14  1  0  0  0  0
 13 17  2  0  0  0  0
 14 15  2  0  0  0  0
 14 16  1  0  0  0  0
 17 18  1  0  0  0  0
 17 28  1  0  0  0  0
 18 29  1  0  0  0  0
 19 20  1  0  0  0  0
 19 30  1  0  0  0  0
 20 31  1  0  0  0  0
M  CHG  4   2   1   3  -1  14   1  16  -1
M  END
>  <Line_Number>
204


> <IC50>
76250

$$$$
