43717960.0
 OpenBabel09302502333D

 31 32  0  0  0  0  0  0  0  0999 V2000
    0.9633    0.4355    0.2455 O   0  0  0  0  0  0  0  0  0  0  0  0
    2.0995    0.1666   -0.1699 N   0  3  0  0  0  0  0  0  0  0  0  0
    2.7771   -0.7970    0.2166 O   0  5  0  0  0  0  0  0  0  0  0  0
    2.6846    1.0526   -1.1819 C   0  0  0  0  0  0  0  0  0  0  0  0
    1.9528    2.1522   -1.6421 C   0  0  0  0  0  0  0  0  0  0  0  0
    2.5134    2.9754   -2.6127 C   0  0  0  0  0  0  0  0  0  0  0  0
    3.7991    2.7130   -3.1016 C   0  0  0  0  0  0  0  0  0  0  0  0
    4.5658    1.6427   -2.6170 C   0  0  0  0  0  0  0  0  0  0  0  0
    5.8276    1.3085   -3.1264 N   0  0  0  0  0  0  0  0  0  0  0  0
    6.6792    2.3741   -3.6489 C   0  0  0  0  0  0  0  0  0  0  0  0
    7.9922    1.8016   -4.1349 C   0  0  0  0  0  0  0  0  0  0  0  0
    8.0121    0.8260   -5.1508 C   0  0  0  0  0  0  0  0  0  0  0  0
    9.2205    0.3371   -5.6573 C   0  0  0  0  0  0  0  0  0  0  0  0
   10.4146    0.8339   -5.1516 C   0  0  0  0  0  0  0  0  0  0  0  0
   11.6293    0.4078   -5.6130 O   0  0  0  0  0  0  0  0  0  0  0  0
   10.4051    1.8000   -4.1495 C   0  0  0  0  0  0  0  0  0  0  0  0
   11.5843    2.3023   -3.6770 O   0  0  0  0  0  0  0  0  0  0  0  0
    9.2099    2.2805   -3.6297 C   0  0  0  0  0  0  0  0  0  0  0  0
    3.9715    0.7883   -1.6788 C   0  0  0  0  0  0  0  0  0  0  0  0
    0.9543    2.3685   -1.2689 H   0  0  0  0  0  0  0  0  0  0  0  0
    1.9491    3.8203   -3.0023 H   0  0  0  0  0  0  0  0  0  0  0  0
    4.1797    3.3644   -3.8837 H   0  0  0  0  0  0  0  0  0  0  0  0
    6.3486    0.7027   -2.4946 H   0  0  0  0  0  0  0  0  0  0  0  0
    6.8595    3.1206   -2.8657 H   0  0  0  0  0  0  0  0  0  0  0  0
    6.2132    2.8815   -4.5014 H   0  0  0  0  0  0  0  0  0  0  0  0
    7.0721    0.4511   -5.5544 H   0  0  0  0  0  0  0  0  0  0  0  0
    9.2046   -0.4096   -6.4443 H   0  0  0  0  0  0  0  0  0  0  0  0
   11.4739   -0.3095   -6.2514 H   0  0  0  0  0  0  0  0  0  0  0  0
   12.2704    1.8601   -4.2163 H   0  0  0  0  0  0  0  0  0  0  0  0
    9.2379    3.0351   -2.8487 H   0  0  0  0  0  0  0  0  0  0  0  0
    4.5214   -0.0839   -1.3296 H   0  0  0  0  0  0  0  0  0  0  0  0
  1  2  2  0  0  0  0
  2  3  1  0  0  0  0
  2  4  1  0  0  0  0
  4  5  1  0  0  0  0
  4 19  2  0  0  0  0
  5  6  2  0  0  0  0
  5 20  1  0  0  0  0
  6  7  1  0  0  0  0
  6 21  1  0  0  0  0
  7  8  2  0  0  0  0
  7 22  1  0  0  0  0
  8  9  1  0  0  0  0
  8 19  1  0  0  0  0
  9 10  1  0  0  0  0
  9 23  1  0  0  0  0
 10 11  1  0  0  0  0
 10 24  1  0  0  0  0
 10 25  1  0  0  0  0
 11 12  1  0  0  0  0
 11 18  2  0  0  0  0
 12 13  2  0  0  0  0
 12 26  1  0  0  0  0
 13 14  1  0  0  0  0
 13 27  1  0  0  0  0
 14 15  1  0  0  0  0
 14 16  2  0  0  0  0
 15 28  1  0  0  0  0
 16 17  1  0  0  0  0
 16 18  1  0  0  0  0
 17 29  1  0  0  0  0
 18 30  1  0  0  0  0
 19 31  1  0  0  0  0
M  CHG  2   2   1   3  -1
M  END
>  <Line_Number>
205


> <IC50>
5925

$$$$
