13462598.0
 OpenBabel09302502333D

 33 34  0  0  0  0  0  0  0  0999 V2000
    0.7751    0.0251    0.1694 C   0  0  0  0  0  0  0  0  0  0  0  0
    2.1938   -0.0486    0.0657 O   0  0  0  0  0  0  0  0  0  0  0  0
    2.8909   -0.0875    1.2410 C   0  0  0  0  0  0  0  0  0  0  0  0
    2.3379   -0.0130    2.5200 C   0  0  0  0  0  0  0  0  0  0  0  0
    3.1579   -0.1186    3.6501 C   0  0  0  0  0  0  0  0  0  0  0  0
    4.5338   -0.3279    3.5276 C   0  0  0  0  0  0  0  0  0  0  0  0
    5.3977   -0.4986    4.6157 N   0  0  0  0  0  0  0  0  0  0  0  0
    4.8611   -1.1158    5.8170 C   0  0  0  0  0  0  0  0  0  0  0  0
    5.9856   -1.8329    6.5284 C   0  0  0  0  0  0  0  0  0  0  0  0
    6.2751   -3.1731    6.2176 C   0  0  0  0  0  0  0  0  0  0  0  0
    7.3370   -3.8406    6.8316 C   0  0  0  0  0  0  0  0  0  0  0  0
    8.1451   -3.1688    7.7495 C   0  0  0  0  0  0  0  0  0  0  0  0
    7.8753   -1.8285    8.0497 C   0  0  0  0  0  0  0  0  0  0  0  0
    8.7515   -1.1032    8.9778 N   0  3  0  0  0  0  0  0  0  0  0  0
    9.7324   -1.7056    9.4367 O   0  0  0  0  0  0  0  0  0  0  0  0
    8.4610    0.0719    9.2449 O   0  5  0  0  0  0  0  0  0  0  0  0
    6.7943   -1.1609    7.4548 C   0  0  0  0  0  0  0  0  0  0  0  0
    5.0860   -0.3181    2.2426 C   0  0  0  0  0  0  0  0  0  0  0  0
    4.2714   -0.2226    1.1121 C   0  0  0  0  0  0  0  0  0  0  0  0
    0.3605   -0.0417   -0.8411 H   0  0  0  0  0  0  0  0  0  0  0  0
    0.4692    0.9856    0.5953 H   0  0  0  0  0  0  0  0  0  0  0  0
    0.3708   -0.8107    0.7477 H   0  0  0  0  0  0  0  0  0  0  0  0
    1.2749    0.1167    2.6768 H   0  0  0  0  0  0  0  0  0  0  0  0
    2.6890   -0.0539    4.6282 H   0  0  0  0  0  0  0  0  0  0  0  0
    5.9177    0.3557    4.8040 H   0  0  0  0  0  0  0  0  0  0  0  0
    4.0858   -1.8551    5.5801 H   0  0  0  0  0  0  0  0  0  0  0  0
    4.4065   -0.3671    6.4750 H   0  0  0  0  0  0  0  0  0  0  0  0
    5.6750   -3.6995    5.4761 H   0  0  0  0  0  0  0  0  0  0  0  0
    7.5439   -4.8779    6.5783 H   0  0  0  0  0  0  0  0  0  0  0  0
    8.9787   -3.6976    8.2060 H   0  0  0  0  0  0  0  0  0  0  0  0
    6.5851   -0.1180    7.6916 H   0  0  0  0  0  0  0  0  0  0  0  0
    6.1593   -0.4486    2.1169 H   0  0  0  0  0  0  0  0  0  0  0  0
    4.7192   -0.2766    0.1228 H   0  0  0  0  0  0  0  0  0  0  0  0
  1  2  1  0  0  0  0
  1 20  1  0  0  0  0
  1 21  1  0  0  0  0
  1 22  1  0  0  0  0
  2  3  1  0  0  0  0
  3  4  1  0  0  0  0
  3 19  2  0  0  0  0
  4  5  2  0  0  0  0
  4 23  1  0  0  0  0
  5  6  1  0  0  0  0
  5 24  1  0  0  0  0
  6  7  1  0  0  0  0
  6 18  2  0  0  0  0
  7  8  1  0  0  0  0
  7 25  1  0  0  0  0
  8  9  1  0  0  0  0
  8 26  1  0  0  0  0
  8 27  1  0  0  0  0
  9 10  1  0  0  0  0
  9 17  2  0  0  0  0
 10 11  2  0  0  0  0
 10 28  1  0  0  0  0
 11 12  1  0  0  0  0
 11 29  1  0  0  0  0
 12 13  2  0  0  0  0
 12 30  1  0  0  0  0
 13 14  1  0  0  0  0
 13 17  1  0  0  0  0
 14 15  2  0  0  0  0
 14 16  1  0  0  0  0
 17 31  1  0  0  0  0
 18 19  1  0  0  0  0
 18 32  1  0  0  0  0
 19 33  1  0  0  0  0
M  CHG  2  14   1  16  -1
M  END
>  <Line_Number>
206


> <IC50>
319200

$$$$
