292416.0
 OpenBabel09302502333D

 35 36  0  0  0  0  0  0  0  0999 V2000
    1.2148   -0.1078   -0.4798 C   0  0  0  0  0  0  0  0  0  0  0  0
    2.4919    0.0155    0.2136 N   0  0  0  0  0  0  0  0  0  0  0  0
    3.1718    1.3043    0.1143 C   0  0  0  0  0  0  0  0  0  0  0  0
    3.2466   -1.1202    0.5148 C   0  0  0  0  0  0  0  0  0  0  0  0
    2.8360   -2.4172    0.1626 C   0  0  0  0  0  0  0  0  0  0  0  0
    3.5859   -3.5578    0.4938 C   0  0  0  0  0  0  0  0  0  0  0  0
    4.7731   -3.4433    1.2201 C   0  0  0  0  0  0  0  0  0  0  0  0
    5.5467   -4.6649    1.6522 C   0  0  0  0  0  0  0  0  0  0  0  0
    6.5637   -5.0088    0.6699 N   0  0  0  0  0  0  0  0  0  0  0  0
    7.3358   -6.1614    0.8444 C   0  0  0  0  0  0  0  0  0  0  0  0
    7.4055   -6.8770    2.0499 C   0  0  0  0  0  0  0  0  0  0  0  0
    8.2441   -7.9894    2.1890 C   0  0  0  0  0  0  0  0  0  0  0  0
    9.0542   -8.3816    1.1319 C   0  0  0  0  0  0  0  0  0  0  0  0
   10.0812   -9.7501    1.3019 Cl  0  0  0  0  0  0  0  0  0  0  0  0
    9.0446   -7.6609   -0.0576 C   0  0  0  0  0  0  0  0  0  0  0  0
    8.1978   -6.5535   -0.1914 C   0  0  0  0  0  0  0  0  0  0  0  0
    5.2123   -2.1642    1.5642 C   0  0  0  0  0  0  0  0  0  0  0  0
    4.4570   -1.0325    1.2241 C   0  0  0  0  0  0  0  0  0  0  0  0
    0.7312    0.8680   -0.6026 H   0  0  0  0  0  0  0  0  0  0  0  0
    0.5170   -0.7242    0.0978 H   0  0  0  0  0  0  0  0  0  0  0  0
    1.3439   -0.5379   -1.4788 H   0  0  0  0  0  0  0  0  0  0  0  0
    2.5104    2.0820   -0.2835 H   0  0  0  0  0  0  0  0  0  0  0  0
    4.0378    1.2437   -0.5544 H   0  0  0  0  0  0  0  0  0  0  0  0
    3.4960    1.6514    1.1014 H   0  0  0  0  0  0  0  0  0  0  0  0
    1.9137   -2.5769   -0.3882 H   0  0  0  0  0  0  0  0  0  0  0  0
    3.2173   -4.5360    0.1932 H   0  0  0  0  0  0  0  0  0  0  0  0
    4.8482   -5.4979    1.8000 H   0  0  0  0  0  0  0  0  0  0  0  0
    6.0129   -4.4524    2.6226 H   0  0  0  0  0  0  0  0  0  0  0  0
    6.2479   -4.8902   -0.2894 H   0  0  0  0  0  0  0  0  0  0  0  0
    6.8058   -6.5911    2.9059 H   0  0  0  0  0  0  0  0  0  0  0  0
    8.2597   -8.5326    3.1305 H   0  0  0  0  0  0  0  0  0  0  0  0
    9.6962   -7.9439   -0.8784 H   0  0  0  0  0  0  0  0  0  0  0  0
    8.2235   -5.9873   -1.1193 H   0  0  0  0  0  0  0  0  0  0  0  0
    6.1380   -2.0342    2.1209 H   0  0  0  0  0  0  0  0  0  0  0  0
    4.8344   -0.0704    1.5581 H   0  0  0  0  0  0  0  0  0  0  0  0
  1  2  1  0  0  0  0
  1 19  1  0  0  0  0
  1 20  1  0  0  0  0
  1 21  1  0  0  0  0
  2  3  1  0  0  0  0
  2  4  1  0  0  0  0
  3 22  1  0  0  0  0
  3 23  1  0  0  0  0
  3 24  1  0  0  0  0
  4  5  1  0  0  0  0
  4 18  2  0  0  0  0
  5  6  2  0  0  0  0
  5 25  1  0  0  0  0
  6  7  1  0  0  0  0
  6 26  1  0  0  0  0
  7  8  1  0  0  0  0
  7 17  2  0  0  0  0
  8  9  1  0  0  0  0
  8 27  1  0  0  0  0
  8 28  1  0  0  0  0
  9 10  1  0  0  0  0
  9 29  1  0  0  0  0
 10 11  1  0  0  0  0
 10 16  2  0  0  0  0
 11 12  2  0  0  0  0
 11 30  1  0  0  0  0
 12 13  1  0  0  0  0
 12 31  1  0  0  0  0
 13 14  1  0  0  0  0
 13 15  2  0  0  0  0
 15 16  1  0  0  0  0
 15 32  1  0  0  0  0
 16 33  1  0  0  0  0
 17 18  1  0  0  0  0
 17 34  1  0  0  0  0
 18 35  1  0  0  0  0
M  END
>  <Line_Number>
207


> <IC50>
500000

$$$$
