43226460.0
 OpenBabel09302502333D

 30 31  0  0  0  0  0  0  0  0999 V2000
    0.7974    0.0358   -0.1801 O   0  0  0  0  0  0  0  0  0  0  0  0
    2.0312    0.1408   -0.1234 N   0  3  0  0  0  0  0  0  0  0  0  0
    2.6333    0.9933    0.5453 O   0  5  0  0  0  0  0  0  0  0  0  0
    2.8331   -0.8062   -0.9057 C   0  0  0  0  0  0  0  0  0  0  0  0
    2.1972   -1.7736   -1.6920 C   0  0  0  0  0  0  0  0  0  0  0  0
    2.9660   -2.6446   -2.4721 C   0  0  0  0  0  0  0  0  0  0  0  0
    4.3617   -2.5517   -2.4852 C   0  0  0  0  0  0  0  0  0  0  0  0
    5.1863   -3.3665   -3.2540 N   0  0  0  0  0  0  0  0  0  0  0  0
    4.6990   -3.9012   -4.5180 C   0  0  0  0  0  0  0  0  0  0  0  0
    5.8781   -4.1225   -5.4372 C   0  0  0  0  0  0  0  0  0  0  0  0
    6.1441   -5.3822   -5.9908 C   0  0  0  0  0  0  0  0  0  0  0  0
    7.2313   -5.5617   -6.8518 C   0  0  0  0  0  0  0  0  0  0  0  0
    8.0513   -4.4802   -7.1605 C   0  0  0  0  0  0  0  0  0  0  0  0
    9.1240   -4.6124   -7.9909 O   0  0  0  0  0  0  0  0  0  0  0  0
    7.8000   -3.2237   -6.6289 C   0  0  0  0  0  0  0  0  0  0  0  0
    6.7161   -3.0441   -5.7704 C   0  0  0  0  0  0  0  0  0  0  0  0
    4.9792   -1.6171   -1.6421 C   0  0  0  0  0  0  0  0  0  0  0  0
    4.2278   -0.7312   -0.8671 C   0  0  0  0  0  0  0  0  0  0  0  0
    1.1130   -1.8594   -1.7171 H   0  0  0  0  0  0  0  0  0  0  0  0
    2.4529   -3.3938   -3.0692 H   0  0  0  0  0  0  0  0  0  0  0  0
    5.6650   -4.0683   -2.6934 H   0  0  0  0  0  0  0  0  0  0  0  0
    4.0180   -3.2018   -5.0196 H   0  0  0  0  0  0  0  0  0  0  0  0
    4.1546   -4.8364   -4.3438 H   0  0  0  0  0  0  0  0  0  0  0  0
    5.5076   -6.2323   -5.7569 H   0  0  0  0  0  0  0  0  0  0  0  0
    7.4208   -6.5455   -7.2691 H   0  0  0  0  0  0  0  0  0  0  0  0
    9.1905   -5.5412   -8.2641 H   0  0  0  0  0  0  0  0  0  0  0  0
    8.4474   -2.3857   -6.8745 H   0  0  0  0  0  0  0  0  0  0  0  0
    6.5258   -2.0582   -5.3489 H   0  0  0  0  0  0  0  0  0  0  0  0
    6.0657   -1.5470   -1.6275 H   0  0  0  0  0  0  0  0  0  0  0  0
    4.7437    0.0095   -0.2607 H   0  0  0  0  0  0  0  0  0  0  0  0
  1  2  2  0  0  0  0
  2  3  1  0  0  0  0
  2  4  1  0  0  0  0
  4  5  1  0  0  0  0
  4 18  2  0  0  0  0
  5  6  2  0  0  0  0
  5 19  1  0  0  0  0
  6  7  1  0  0  0  0
  6 20  1  0  0  0  0
  7  8  1  0  0  0  0
  7 17  2  0  0  0  0
  8  9  1  0  0  0  0
  8 21  1  0  0  0  0
  9 10  1  0  0  0  0
  9 22  1  0  0  0  0
  9 23  1  0  0  0  0
 10 11  1  0  0  0  0
 10 16  2  0  0  0  0
 11 12  2  0  0  0  0
 11 24  1  0  0  0  0
 12 13  1  0  0  0  0
 12 25  1  0  0  0  0
 13 14  1  0  0  0  0
 13 15  2  0  0  0  0
 14 26  1  0  0  0  0
 15 16  1  0  0  0  0
 15 27  1  0  0  0  0
 16 28  1  0  0  0  0
 17 18  1  0  0  0  0
 17 29  1  0  0  0  0
 18 30  1  0  0  0  0
M  CHG  2   2   1   3  -1
M  END
>  <Line_Number>
208


> <IC50>
18180

$$$$
