12953968.0
 OpenBabel09302502333D

 37 38  0  0  0  0  0  0  0  0999 V2000
    1.0689   -0.2379   -0.3216 C   0  0  0  0  0  0  0  0  0  0  0  0
    2.4264   -0.0024    0.0327 O   0  0  0  0  0  0  0  0  0  0  0  0
    3.1433   -1.0684    0.5088 C   0  0  0  0  0  0  0  0  0  0  0  0
    2.8219   -2.3991    0.2070 C   0  0  0  0  0  0  0  0  0  0  0  0
    3.6200   -3.4565    0.6640 C   0  0  0  0  0  0  0  0  0  0  0  0
    4.7628   -3.2056    1.4279 C   0  0  0  0  0  0  0  0  0  0  0  0
    5.6185   -4.3429    1.9365 C   0  0  0  0  0  0  0  0  0  0  0  0
    6.6536   -4.6696    0.9666 N   0  0  0  0  0  0  0  0  0  0  0  0
    7.4998   -5.7624    1.1603 C   0  0  0  0  0  0  0  0  0  0  0  0
    7.6122   -6.4537    2.3748 C   0  0  0  0  0  0  0  0  0  0  0  0
    8.5211   -7.5072    2.5397 C   0  0  0  0  0  0  0  0  0  0  0  0
    9.3668   -7.8716    1.4977 C   0  0  0  0  0  0  0  0  0  0  0  0
    9.3032   -7.1608    0.2950 C   0  0  0  0  0  0  0  0  0  0  0  0
   10.2086   -7.5167   -0.8031 N   0  3  0  0  0  0  0  0  0  0  0  0
   10.9749   -8.4757   -0.6310 O   0  0  0  0  0  0  0  0  0  0  0  0
   10.1500   -6.8438   -1.8427 O   0  5  0  0  0  0  0  0  0  0  0  0
    8.3867   -6.1088    0.1305 C   0  0  0  0  0  0  0  0  0  0  0  0
    5.1023   -1.8743    1.7008 C   0  0  0  0  0  0  0  0  0  0  0  0
    4.2954   -0.8088    1.2700 C   0  0  0  0  0  0  0  0  0  0  0  0
    4.7793    0.4213    1.6403 O   0  0  0  0  0  0  0  0  0  0  0  0
    3.8118    1.4298    1.9069 C   0  0  0  0  0  0  0  0  0  0  0  0
    0.6131    0.7304   -0.5507 H   0  0  0  0  0  0  0  0  0  0  0  0
    0.5132   -0.6801    0.5124 H   0  0  0  0  0  0  0  0  0  0  0  0
    0.9921   -0.8552   -1.2216 H   0  0  0  0  0  0  0  0  0  0  0  0
    1.9624   -2.6495   -0.4049 H   0  0  0  0  0  0  0  0  0  0  0  0
    3.3434   -4.4763    0.4074 H   0  0  0  0  0  0  0  0  0  0  0  0
    4.9770   -5.2116    2.1305 H   0  0  0  0  0  0  0  0  0  0  0  0
    6.0696   -4.0486    2.8920 H   0  0  0  0  0  0  0  0  0  0  0  0
    6.3503   -4.5614    0.0015 H   0  0  0  0  0  0  0  0  0  0  0  0
    6.9877   -6.1938    3.2253 H   0  0  0  0  0  0  0  0  0  0  0  0
    8.5697   -8.0357    3.4892 H   0  0  0  0  0  0  0  0  0  0  0  0
   10.0697   -8.6890    1.6398 H   0  0  0  0  0  0  0  0  0  0  0  0
    8.3654   -5.5433   -0.7990 H   0  0  0  0  0  0  0  0  0  0  0  0
    6.0040   -1.6536    2.2689 H   0  0  0  0  0  0  0  0  0  0  0  0
    4.2885    2.1847    2.5406 H   0  0  0  0  0  0  0  0  0  0  0  0
    2.9466    1.0410    2.4555 H   0  0  0  0  0  0  0  0  0  0  0  0
    3.5098    1.9317    0.9834 H   0  0  0  0  0  0  0  0  0  0  0  0
  1  2  1  0  0  0  0
  1 22  1  0  0  0  0
  1 23  1  0  0  0  0
  1 24  1  0  0  0  0
  2  3  1  0  0  0  0
  3  4  1  0  0  0  0
  3 19  2  0  0  0  0
  4  5  2  0  0  0  0
  4 25  1  0  0  0  0
  5  6  1  0  0  0  0
  5 26  1  0  0  0  0
  6  7  1  0  0  0  0
  6 18  2  0  0  0  0
  7  8  1  0  0  0  0
  7 27  1  0  0  0  0
  7 28  1  0  0  0  0
  8  9  1  0  0  0  0
  8 29  1  0  0  0  0
  9 10  1  0  0  0  0
  9 17  2  0  0  0  0
 10 11  2  0  0  0  0
 10 30  1  0  0  0  0
 11 12  1  0  0  0  0
 11 31  1  0  0  0  0
 12 13  2  0  0  0  0
 12 32  1  0  0  0  0
 13 14  1  0  0  0  0
 13 17  1  0  0  0  0
 14 15  2  0  0  0  0
 14 16  1  0  0  0  0
 17 33  1  0  0  0  0
 18 19  1  0  0  0  0
 18 34  1  0  0  0  0
 19 20  1  0  0  0  0
 20 21  1  0  0  0  0
 21 35  1  0  0  0  0
 21 36  1  0  0  0  0
 21 37  1  0  0  0  0
M  CHG  2  14   1  16  -1
M  END
>  <Line_Number>
209


> <IC50>
50400

$$$$
