52942302.0
 OpenBabel09302502333D

 37 38  0  0  0  0  0  0  0  0999 V2000
    1.0869    0.1875    0.4846 C   0  0  0  0  0  0  0  0  0  0  0  0
    2.4328   -0.0238    0.0674 O   0  0  0  0  0  0  0  0  0  0  0  0
    3.0170    0.9972   -0.6359 C   0  0  0  0  0  0  0  0  0  0  0  0
    2.6095    2.3273   -0.4911 C   0  0  0  0  0  0  0  0  0  0  0  0
    3.2444    3.3572   -1.1880 C   0  0  0  0  0  0  0  0  0  0  0  0
    4.3355    3.0990   -2.0211 C   0  0  0  0  0  0  0  0  0  0  0  0
    5.0192    4.1962   -2.8155 C   0  0  0  0  0  0  0  0  0  0  0  0
    5.0376    5.5634   -2.1159 C   0  0  0  0  0  0  0  0  0  0  0  0
    5.6611    6.6634   -2.9365 C   0  0  0  0  0  0  0  0  0  0  0  0
    4.8725    7.4172   -3.8193 C   0  0  0  0  0  0  0  0  0  0  0  0
    5.4207    8.4854   -4.5291 C   0  0  0  0  0  0  0  0  0  0  0  0
    6.7672    8.7896   -4.3636 C   0  0  0  0  0  0  0  0  0  0  0  0
    7.3437    9.8349   -5.0228 O   0  0  0  0  0  0  0  0  0  0  0  0
    7.5696    8.0419   -3.5093 C   0  0  0  0  0  0  0  0  0  0  0  0
    7.0215    6.9763   -2.7982 C   0  0  0  0  0  0  0  0  0  0  0  0
    4.7527    1.7664   -2.1553 C   0  0  0  0  0  0  0  0  0  0  0  0
    4.1035    0.7160   -1.4791 C   0  0  0  0  0  0  0  0  0  0  0  0
    4.6697   -0.5116   -1.7177 O   0  0  0  0  0  0  0  0  0  0  0  0
    3.7998   -1.6358   -1.6748 C   0  0  0  0  0  0  0  0  0  0  0  0
    0.7069   -0.7573    0.8829 H   0  0  0  0  0  0  0  0  0  0  0  0
    0.4516    0.4759   -0.3604 H   0  0  0  0  0  0  0  0  0  0  0  0
    1.0301    0.9260    1.2909 H   0  0  0  0  0  0  0  0  0  0  0  0
    1.8044    2.6095    0.1789 H   0  0  0  0  0  0  0  0  0  0  0  0
    2.8616    4.3634   -1.0479 H   0  0  0  0  0  0  0  0  0  0  0  0
    4.5117    4.2749   -3.7856 H   0  0  0  0  0  0  0  0  0  0  0  0
    6.0551    3.8973   -3.0244 H   0  0  0  0  0  0  0  0  0  0  0  0
    5.5569    5.4825   -1.1518 H   0  0  0  0  0  0  0  0  0  0  0  0
    4.0201    5.8910   -1.8735 H   0  0  0  0  0  0  0  0  0  0  0  0
    3.8146    7.1893   -3.9379 H   0  0  0  0  0  0  0  0  0  0  0  0
    4.7870    9.0690   -5.1882 H   0  0  0  0  0  0  0  0  0  0  0  0
    6.6708   10.2575   -5.5809 H   0  0  0  0  0  0  0  0  0  0  0  0
    8.6185    8.2974   -3.3877 H   0  0  0  0  0  0  0  0  0  0  0  0
    7.6515    6.4051   -2.1212 H   0  0  0  0  0  0  0  0  0  0  0  0
    5.5924    1.5236   -2.8052 H   0  0  0  0  0  0  0  0  0  0  0  0
    4.3023   -2.4609   -2.1899 H   0  0  0  0  0  0  0  0  0  0  0  0
    2.8580   -1.4451   -2.2009 H   0  0  0  0  0  0  0  0  0  0  0  0
    3.6286   -1.9626   -0.6452 H   0  0  0  0  0  0  0  0  0  0  0  0
  1  2  1  0  0  0  0
  1 20  1  0  0  0  0
  1 21  1  0  0  0  0
  1 22  1  0  0  0  0
  2  3  1  0  0  0  0
  3  4  1  0  0  0  0
  3 17  2  0  0  0  0
  4  5  2  0  0  0  0
  4 23  1  0  0  0  0
  5  6  1  0  0  0  0
  5 24  1  0  0  0  0
  6  7  1  0  0  0  0
  6 16  2  0  0  0  0
  7  8  1  0  0  0  0
  7 25  1  0  0  0  0
  7 26  1  0  0  0  0
  8  9  1  0  0  0  0
  8 27  1  0  0  0  0
  8 28  1  0  0  0  0
  9 10  1  0  0  0  0
  9 15  2  0  0  0  0
 10 11  2  0  0  0  0
 10 29  1  0  0  0  0
 11 12  1  0  0  0  0
 11 30  1  0  0  0  0
 12 13  1  0  0  0  0
 12 14  2  0  0  0  0
 13 31  1  0  0  0  0
 14 15  1  0  0  0  0
 14 32  1  0  0  0  0
 15 33  1  0  0  0  0
 16 17  1  0  0  0  0
 16 34  1  0  0  0  0
 17 18  1  0  0  0  0
 18 19  1  0  0  0  0
 19 35  1  0  0  0  0
 19 36  1  0  0  0  0
 19 37  1  0  0  0  0
M  END
>  <Line_Number>
20


> <IC50>
204000

$$$$
