961574.0
 OpenBabel09302502333D

 31 32  0  0  0  0  0  0  0  0999 V2000
    0.9496    0.1011   -0.2645 C   0  0  0  0  0  0  0  0  0  0  0  0
    2.3694    0.1162   -0.1839 O   0  0  0  0  0  0  0  0  0  0  0  0
    3.0337   -0.7825   -0.9714 C   0  0  0  0  0  0  0  0  0  0  0  0
    2.4440   -1.7513   -1.7811 C   0  0  0  0  0  0  0  0  0  0  0  0
    3.2383   -2.5913   -2.5698 C   0  0  0  0  0  0  0  0  0  0  0  0
    4.6292   -2.4640   -2.5787 C   0  0  0  0  0  0  0  0  0  0  0  0
    5.4758   -3.2536   -3.3583 N   0  0  0  0  0  0  0  0  0  0  0  0
    4.9715   -3.7482   -4.6323 C   0  0  0  0  0  0  0  0  0  0  0  0
    6.1346   -3.9341   -5.5782 C   0  0  0  0  0  0  0  0  0  0  0  0
    6.3903   -5.1742   -6.1780 C   0  0  0  0  0  0  0  0  0  0  0  0
    7.4529   -5.3169   -7.0729 C   0  0  0  0  0  0  0  0  0  0  0  0
    8.2657   -4.2232   -7.3699 C   0  0  0  0  0  0  0  0  0  0  0  0
    9.5738   -4.4056   -8.4729 Cl  0  0  0  0  0  0  0  0  0  0  0  0
    8.0242   -2.9845   -6.7833 C   0  0  0  0  0  0  0  0  0  0  0  0
    6.9607   -2.8409   -5.8926 C   0  0  0  0  0  0  0  0  0  0  0  0
    5.2136   -1.5387   -1.7096 C   0  0  0  0  0  0  0  0  0  0  0  0
    4.4241   -0.6918   -0.9275 C   0  0  0  0  0  0  0  0  0  0  0  0
    0.5677    0.8958    0.3833 H   0  0  0  0  0  0  0  0  0  0  0  0
    0.5479   -0.8496    0.1012 H   0  0  0  0  0  0  0  0  0  0  0  0
    0.6069    0.3090   -1.2840 H   0  0  0  0  0  0  0  0  0  0  0  0
    1.3680   -1.8809   -1.8288 H   0  0  0  0  0  0  0  0  0  0  0  0
    2.7427   -3.3408   -3.1797 H   0  0  0  0  0  0  0  0  0  0  0  0
    5.9056   -3.9900   -2.8029 H   0  0  0  0  0  0  0  0  0  0  0  0
    4.2837   -3.0340   -5.1041 H   0  0  0  0  0  0  0  0  0  0  0  0
    4.4304   -4.6892   -4.4829 H   0  0  0  0  0  0  0  0  0  0  0  0
    5.7613   -6.0340   -5.9583 H   0  0  0  0  0  0  0  0  0  0  0  0
    7.6444   -6.2844   -7.5332 H   0  0  0  0  0  0  0  0  0  0  0  0
    8.6564   -2.1303   -7.0094 H   0  0  0  0  0  0  0  0  0  0  0  0
    6.7753   -1.8723   -5.4297 H   0  0  0  0  0  0  0  0  0  0  0  0
    6.2960   -1.4406   -1.6745 H   0  0  0  0  0  0  0  0  0  0  0  0
    4.9004    0.0517   -0.2939 H   0  0  0  0  0  0  0  0  0  0  0  0
  1  2  1  0  0  0  0
  1 18  1  0  0  0  0
  1 19  1  0  0  0  0
  1 20  1  0  0  0  0
  2  3  1  0  0  0  0
  3  4  1  0  0  0  0
  3 17  2  0  0  0  0
  4  5  2  0  0  0  0
  4 21  1  0  0  0  0
  5  6  1  0  0  0  0
  5 22  1  0  0  0  0
  6  7  1  0  0  0  0
  6 16  2  0  0  0  0
  7  8  1  0  0  0  0
  7 23  1  0  0  0  0
  8  9  1  0  0  0  0
  8 24  1  0  0  0  0
  8 25  1  0  0  0  0
  9 10  1  0  0  0  0
  9 15  2  0  0  0  0
 10 11  2  0  0  0  0
 10 26  1  0  0  0  0
 11 12  1  0  0  0  0
 11 27  1  0  0  0  0
 12 13  1  0  0  0  0
 12 14  2  0  0  0  0
 14 15  1  0  0  0  0
 14 28  1  0  0  0  0
 15 29  1  0  0  0  0
 16 17  1  0  0  0  0
 16 30  1  0  0  0  0
 17 31  1  0  0  0  0
M  END
>  <Line_Number>
210


> <IC50>
500000

$$$$
