3130391.0
 OpenBabel09302502333D

 31 32  0  0  0  0  0  0  0  0999 V2000
    2.3189   -2.4306    3.0788 O   0  0  0  0  0  0  0  0  0  0  0  0
    3.4463   -1.9733    2.8464 N   0  3  0  0  0  0  0  0  0  0  0  0
    4.4843   -2.6480    2.8068 O   0  5  0  0  0  0  0  0  0  0  0  0
    3.5593   -0.5293    2.5990 C   0  0  0  0  0  0  0  0  0  0  0  0
    2.4064    0.2649    2.5994 C   0  0  0  0  0  0  0  0  0  0  0  0
    2.5187    1.6353    2.3657 C   0  0  0  0  0  0  0  0  0  0  0  0
    3.7726    2.2104    2.1398 C   0  0  0  0  0  0  0  0  0  0  0  0
    4.9365    1.4241    2.1429 C   0  0  0  0  0  0  0  0  0  0  0  0
    6.2951    2.0500    1.9068 C   0  0  0  0  0  0  0  0  0  0  0  0
    7.1474    1.7976    3.0582 N   0  0  0  0  0  0  0  0  0  0  0  0
    8.4501    2.2812    3.1375 C   0  0  0  0  0  0  0  0  0  0  0  0
    9.1068    2.9433    2.0919 C   0  0  0  0  0  0  0  0  0  0  0  0
   10.4442    3.3459    2.2063 C   0  0  0  0  0  0  0  0  0  0  0  0
   11.1665    3.0601    3.3614 C   0  0  0  0  0  0  0  0  0  0  0  0
   10.5380    2.3652    4.3981 C   0  0  0  0  0  0  0  0  0  0  0  0
   11.2932    2.0288    5.6105 N   0  3  0  0  0  0  0  0  0  0  0  0
   12.4772    2.3897    5.6708 O   0  0  0  0  0  0  0  0  0  0  0  0
   10.7029    1.4076    6.5062 O   0  5  0  0  0  0  0  0  0  0  0  0
    9.1945    1.9762    4.2866 C   0  0  0  0  0  0  0  0  0  0  0  0
    4.8191    0.0410    2.3679 C   0  0  0  0  0  0  0  0  0  0  0  0
    1.4219   -0.1645    2.7782 H   0  0  0  0  0  0  0  0  0  0  0  0
    1.6272    2.2593    2.3616 H   0  0  0  0  0  0  0  0  0  0  0  0
    3.8340    3.2830    1.9634 H   0  0  0  0  0  0  0  0  0  0  0  0
    6.1873    3.1281    1.7392 H   0  0  0  0  0  0  0  0  0  0  0  0
    6.7247    1.6049    1.0008 H   0  0  0  0  0  0  0  0  0  0  0  0
    6.6544    1.8397    3.9476 H   0  0  0  0  0  0  0  0  0  0  0  0
    8.5888    3.1747    1.1650 H   0  0  0  0  0  0  0  0  0  0  0  0
   10.9218    3.8760    1.3850 H   0  0  0  0  0  0  0  0  0  0  0  0
   12.2069    3.3701    3.4324 H   0  0  0  0  0  0  0  0  0  0  0  0
    8.7204    1.4122    5.0883 H   0  0  0  0  0  0  0  0  0  0  0  0
    5.7202   -0.5735    2.3703 H   0  0  0  0  0  0  0  0  0  0  0  0
  1  2  2  0  0  0  0
  2  3  1  0  0  0  0
  2  4  1  0  0  0  0
  4  5  1  0  0  0  0
  4 20  2  0  0  0  0
  5  6  2  0  0  0  0
  5 21  1  0  0  0  0
  6  7  1  0  0  0  0
  6 22  1  0  0  0  0
  7  8  2  0  0  0  0
  7 23  1  0  0  0  0
  8  9  1  0  0  0  0
  8 20  1  0  0  0  0
  9 10  1  0  0  0  0
  9 24  1  0  0  0  0
  9 25  1  0  0  0  0
 10 11  1  0  0  0  0
 10 26  1  0  0  0  0
 11 12  1  0  0  0  0
 11 19  2  0  0  0  0
 12 13  2  0  0  0  0
 12 27  1  0  0  0  0
 13 14  1  0  0  0  0
 13 28  1  0  0  0  0
 14 15  2  0  0  0  0
 14 29  1  0  0  0  0
 15 16  1  0  0  0  0
 15 19  1  0  0  0  0
 16 17  2  0  0  0  0
 16 18  1  0  0  0  0
 19 30  1  0  0  0  0
 20 31  1  0  0  0  0
M  CHG  4   2   1   3  -1  16   1  18  -1
M  END
>  <Line_Number>
211


> <IC50>
85000

$$$$
