1133060.0
 OpenBabel09302502333D

 29 30  0  0  0  0  0  0  0  0999 V2000
    1.6731   -0.6366   -0.0609 O   0  0  0  0  0  0  0  0  0  0  0  0
    2.6962   -0.0166    0.2653 N   0  3  0  0  0  0  0  0  0  0  0  0
    3.3249   -0.2026    1.3175 O   0  5  0  0  0  0  0  0  0  0  0  0
    3.2031    1.0016   -0.6630 C   0  0  0  0  0  0  0  0  0  0  0  0
    2.5275    1.2422   -1.8671 C   0  0  0  0  0  0  0  0  0  0  0  0
    3.0403    2.1797   -2.7695 C   0  0  0  0  0  0  0  0  0  0  0  0
    4.2288    2.8684   -2.4854 C   0  0  0  0  0  0  0  0  0  0  0  0
    4.8459    3.7938   -3.5091 C   0  0  0  0  0  0  0  0  0  0  0  0
    4.3719    5.1591   -3.3478 N   0  0  0  0  0  0  0  0  0  0  0  0
    4.7956    6.1328   -4.2668 C   0  0  0  0  0  0  0  0  0  0  0  0
    5.8398    5.9342   -5.1823 C   0  0  0  0  0  0  0  0  0  0  0  0
    6.2587    6.9506   -6.0479 C   0  0  0  0  0  0  0  0  0  0  0  0
    5.6616    8.2048   -5.9883 C   0  0  0  0  0  0  0  0  0  0  0  0
    4.6600    8.4360   -5.0511 C   0  0  0  0  0  0  0  0  0  0  0  0
    3.9410    9.9979   -4.9490 Cl  0  0  0  0  0  0  0  0  0  0  0  0
    4.2370    7.4166   -4.1918 C   0  0  0  0  0  0  0  0  0  0  0  0
    4.8717    2.6462   -1.2562 C   0  0  0  0  0  0  0  0  0  0  0  0
    4.3680    1.7105   -0.3475 C   0  0  0  0  0  0  0  0  0  0  0  0
    1.6171    0.7027   -2.1210 H   0  0  0  0  0  0  0  0  0  0  0  0
    2.5210    2.3467   -3.7116 H   0  0  0  0  0  0  0  0  0  0  0  0
    4.6105    3.4148   -4.5123 H   0  0  0  0  0  0  0  0  0  0  0  0
    5.9353    3.7546   -3.3910 H   0  0  0  0  0  0  0  0  0  0  0  0
    3.3750    5.2222   -3.1636 H   0  0  0  0  0  0  0  0  0  0  0  0
    6.3502    4.9785   -5.2575 H   0  0  0  0  0  0  0  0  0  0  0  0
    7.0550    6.7588   -6.7627 H   0  0  0  0  0  0  0  0  0  0  0  0
    5.9889    8.9934   -6.6588 H   0  0  0  0  0  0  0  0  0  0  0  0
    3.4715    7.6325   -3.4505 H   0  0  0  0  0  0  0  0  0  0  0  0
    5.7836    3.1876   -1.0110 H   0  0  0  0  0  0  0  0  0  0  0  0
    4.9017    1.5361    0.5850 H   0  0  0  0  0  0  0  0  0  0  0  0
  1  2  2  0  0  0  0
  2  3  1  0  0  0  0
  2  4  1  0  0  0  0
  4  5  1  0  0  0  0
  4 18  2  0  0  0  0
  5  6  2  0  0  0  0
  5 19  1  0  0  0  0
  6  7  1  0  0  0  0
  6 20  1  0  0  0  0
  7  8  1  0  0  0  0
  7 17  2  0  0  0  0
  8  9  1  0  0  0  0
  8 21  1  0  0  0  0
  8 22  1  0  0  0  0
  9 10  1  0  0  0  0
  9 23  1  0  0  0  0
 10 11  1  0  0  0  0
 10 16  2  0  0  0  0
 11 12  2  0  0  0  0
 11 24  1  0  0  0  0
 12 13  1  0  0  0  0
 12 25  1  0  0  0  0
 13 14  2  0  0  0  0
 13 26  1  0  0  0  0
 14 15  1  0  0  0  0
 14 16  1  0  0  0  0
 16 27  1  0  0  0  0
 17 18  1  0  0  0  0
 17 28  1  0  0  0  0
 18 29  1  0  0  0  0
M  CHG  2   2   1   3  -1
M  END
>  <Line_Number>
212


> <IC50>
236500

$$$$
