22353735.0
 OpenBabel09302502333D

 29 30  0  0  0  0  0  0  0  0999 V2000
    0.8699    0.1072   -0.0619 O   0  0  0  0  0  0  0  0  0  0  0  0
    2.1060    0.0598    0.0190 N   0  3  0  0  0  0  0  0  0  0  0  0
    2.7469   -0.9245    0.4139 O   0  5  0  0  0  0  0  0  0  0  0  0
    2.8616    1.2544   -0.3755 C   0  0  0  0  0  0  0  0  0  0  0  0
    2.1804    2.3953   -0.8134 C   0  0  0  0  0  0  0  0  0  0  0  0
    2.9036    3.5462   -1.1460 C   0  0  0  0  0  0  0  0  0  0  0  0
    4.2982    3.5799   -1.0242 C   0  0  0  0  0  0  0  0  0  0  0  0
    5.0795    4.7000   -1.3254 N   0  0  0  0  0  0  0  0  0  0  0  0
    4.4858    6.0197   -1.1349 C   0  0  0  0  0  0  0  0  0  0  0  0
    5.5481    7.0679   -0.8751 C   0  0  0  0  0  0  0  0  0  0  0  0
    5.2931    8.4066   -1.2137 C   0  0  0  0  0  0  0  0  0  0  0  0
    6.2151    9.4103   -0.9022 C   0  0  0  0  0  0  0  0  0  0  0  0
    7.3985    9.0830   -0.2426 C   0  0  0  0  0  0  0  0  0  0  0  0
    8.5242   10.3222    0.1542 Cl  0  0  0  0  0  0  0  0  0  0  0  0
    7.6663    7.7637    0.1092 C   0  0  0  0  0  0  0  0  0  0  0  0
    6.7410    6.7629   -0.1968 C   0  0  0  0  0  0  0  0  0  0  0  0
    4.9641    2.4044   -0.6499 C   0  0  0  0  0  0  0  0  0  0  0  0
    4.2577    1.2484   -0.3060 C   0  0  0  0  0  0  0  0  0  0  0  0
    1.0956    2.4101   -0.8952 H   0  0  0  0  0  0  0  0  0  0  0  0
    2.3523    4.4158   -1.4942 H   0  0  0  0  0  0  0  0  0  0  0  0
    5.4950    4.6103   -2.2522 H   0  0  0  0  0  0  0  0  0  0  0  0
    3.8125    6.0313   -0.2666 H   0  0  0  0  0  0  0  0  0  0  0  0
    3.9092    6.2874   -2.0291 H   0  0  0  0  0  0  0  0  0  0  0  0
    4.3646    8.6811   -1.7102 H   0  0  0  0  0  0  0  0  0  0  0  0
    5.9980   10.4418   -1.1631 H   0  0  0  0  0  0  0  0  0  0  0  0
    8.5832    7.5075    0.6333 H   0  0  0  0  0  0  0  0  0  0  0  0
    6.9495    5.7387    0.1075 H   0  0  0  0  0  0  0  0  0  0  0  0
    6.0506    2.4035   -0.5807 H   0  0  0  0  0  0  0  0  0  0  0  0
    4.8080    0.3697    0.0223 H   0  0  0  0  0  0  0  0  0  0  0  0
  1  2  2  0  0  0  0
  2  3  1  0  0  0  0
  2  4  1  0  0  0  0
  4  5  1  0  0  0  0
  4 18  2  0  0  0  0
  5  6  2  0  0  0  0
  5 19  1  0  0  0  0
  6  7  1  0  0  0  0
  6 20  1  0  0  0  0
  7  8  1  0  0  0  0
  7 17  2  0  0  0  0
  8  9  1  0  0  0  0
  8 21  1  0  0  0  0
  9 10  1  0  0  0  0
  9 22  1  0  0  0  0
  9 23  1  0  0  0  0
 10 11  1  0  0  0  0
 10 16  2  0  0  0  0
 11 12  2  0  0  0  0
 11 24  1  0  0  0  0
 12 13  1  0  0  0  0
 12 25  1  0  0  0  0
 13 14  1  0  0  0  0
 13 15  2  0  0  0  0
 15 16  1  0  0  0  0
 15 26  1  0  0  0  0
 16 27  1  0  0  0  0
 17 18  1  0  0  0  0
 17 28  1  0  0  0  0
 18 29  1  0  0  0  0
M  CHG  2   2   1   3  -1
M  END
>  <Line_Number>
213


> <IC50>
51650

$$$$
