13462606.0
 OpenBabel09302502333D

 29 30  0  0  0  0  0  0  0  0999 V2000
    1.2650    0.0661   -0.5657 O   0  0  0  0  0  0  0  0  0  0  0  0
    2.2985   -0.0234    0.1127 N   0  3  0  0  0  0  0  0  0  0  0  0
    2.7689    0.8961    0.7965 O   0  5  0  0  0  0  0  0  0  0  0  0
    3.0172   -1.3024    0.0958 C   0  0  0  0  0  0  0  0  0  0  0  0
    2.5268   -2.3584   -0.6763 C   0  0  0  0  0  0  0  0  0  0  0  0
    3.2166   -3.5670   -0.6818 C   0  0  0  0  0  0  0  0  0  0  0  0
    4.3928   -3.7071    0.0651 C   0  0  0  0  0  0  0  0  0  0  0  0
    4.9179   -2.6476    0.8205 C   0  0  0  0  0  0  0  0  0  0  0  0
    6.0438   -2.7799    1.6460 N   0  0  0  0  0  0  0  0  0  0  0  0
    7.0775   -3.7353    1.2600 C   0  0  0  0  0  0  0  0  0  0  0  0
    8.2384   -3.6870    2.2300 C   0  0  0  0  0  0  0  0  0  0  0  0
    8.0659   -4.0459    3.5773 C   0  0  0  0  0  0  0  0  0  0  0  0
    9.1569   -4.0707    4.4515 C   0  0  0  0  0  0  0  0  0  0  0  0
   10.4249   -3.7287    3.9871 C   0  0  0  0  0  0  0  0  0  0  0  0
   11.7731   -3.7799    5.0551 Cl  0  0  0  0  0  0  0  0  0  0  0  0
   10.6092   -3.3487    2.6600 C   0  0  0  0  0  0  0  0  0  0  0  0
    9.5204   -3.3306    1.7845 C   0  0  0  0  0  0  0  0  0  0  0  0
    4.1929   -1.4480    0.8542 C   0  0  0  0  0  0  0  0  0  0  0  0
    1.6133   -2.2642   -1.2587 H   0  0  0  0  0  0  0  0  0  0  0  0
    2.8385   -4.4080   -1.2585 H   0  0  0  0  0  0  0  0  0  0  0  0
    4.8777   -4.6787    0.0518 H   0  0  0  0  0  0  0  0  0  0  0  0
    6.4405   -1.8830    1.9182 H   0  0  0  0  0  0  0  0  0  0  0  0
    7.4338   -3.5061    0.2475 H   0  0  0  0  0  0  0  0  0  0  0  0
    6.6935   -4.7616    1.2556 H   0  0  0  0  0  0  0  0  0  0  0  0
    7.0777   -4.3135    3.9483 H   0  0  0  0  0  0  0  0  0  0  0  0
    9.0118   -4.3606    5.4890 H   0  0  0  0  0  0  0  0  0  0  0  0
   11.5963   -3.0721    2.2990 H   0  0  0  0  0  0  0  0  0  0  0  0
    9.6843   -3.0443    0.7474 H   0  0  0  0  0  0  0  0  0  0  0  0
    4.5486   -0.6278    1.4725 H   0  0  0  0  0  0  0  0  0  0  0  0
  1  2  2  0  0  0  0
  2  3  1  0  0  0  0
  2  4  1  0  0  0  0
  4  5  1  0  0  0  0
  4 18  2  0  0  0  0
  5  6  2  0  0  0  0
  5 19  1  0  0  0  0
  6  7  1  0  0  0  0
  6 20  1  0  0  0  0
  7  8  2  0  0  0  0
  7 21  1  0  0  0  0
  8  9  1  0  0  0  0
  8 18  1  0  0  0  0
  9 10  1  0  0  0  0
  9 22  1  0  0  0  0
 10 11  1  0  0  0  0
 10 23  1  0  0  0  0
 10 24  1  0  0  0  0
 11 12  1  0  0  0  0
 11 17  2  0  0  0  0
 12 13  2  0  0  0  0
 12 25  1  0  0  0  0
 13 14  1  0  0  0  0
 13 26  1  0  0  0  0
 14 15  1  0  0  0  0
 14 16  2  0  0  0  0
 16 17  1  0  0  0  0
 16 27  1  0  0  0  0
 17 28  1  0  0  0  0
 18 29  1  0  0  0  0
M  CHG  2   2   1   3  -1
M  END
>  <Line_Number>
214


> <IC50>
57500

$$$$
