43718150.0
 OpenBabel09302502333D

 31 32  0  0  0  0  0  0  0  0999 V2000
    5.0715   -3.7770   -2.8480 O   0  0  0  0  0  0  0  0  0  0  0  0
    4.8849   -3.2297   -1.7499 N   0  3  0  0  0  0  0  0  0  0  0  0
    5.1217   -3.7754   -0.6597 O   0  5  0  0  0  0  0  0  0  0  0  0
    4.3150   -1.8726   -1.7414 C   0  0  0  0  0  0  0  0  0  0  0  0
    4.0266   -1.3134   -3.0116 C   0  0  0  0  0  0  0  0  0  0  0  0
    3.4077   -0.0733   -3.1181 C   0  0  0  0  0  0  0  0  0  0  0  0
    3.0746    0.6193   -1.9623 C   0  0  0  0  0  0  0  0  0  0  0  0
    3.3786    0.0773   -0.7117 C   0  0  0  0  0  0  0  0  0  0  0  0
    3.9844   -1.1848   -0.5429 C   0  0  0  0  0  0  0  0  0  0  0  0
    4.3313   -1.6133    0.7639 N   0  0  0  0  0  0  0  0  0  0  0  0
    3.4030   -1.2440    1.8388 C   0  0  0  0  0  0  0  0  0  0  0  0
    3.8172   -1.7477    3.2012 C   0  0  0  0  0  0  0  0  0  0  0  0
    5.0599   -1.3734    3.7476 C   0  0  0  0  0  0  0  0  0  0  0  0
    5.3668   -1.6501    5.0838 C   0  0  0  0  0  0  0  0  0  0  0  0
    4.4274   -2.2974    5.8753 C   0  0  0  0  0  0  0  0  0  0  0  0
    4.6548   -2.5571    7.1999 O   0  0  0  0  0  0  0  0  0  0  0  0
    3.1979   -2.6764    5.3436 C   0  0  0  0  0  0  0  0  0  0  0  0
    2.2601   -3.2611    6.1469 O   0  0  0  0  0  0  0  0  0  0  0  0
    2.8896   -2.4215    4.0129 C   0  0  0  0  0  0  0  0  0  0  0  0
    4.2651   -1.8437   -3.9321 H   0  0  0  0  0  0  0  0  0  0  0  0
    3.1810    0.3468   -4.0949 H   0  0  0  0  0  0  0  0  0  0  0  0
    2.5841    1.5840   -2.0270 H   0  0  0  0  0  0  0  0  0  0  0  0
    3.1225    0.6968    0.1448 H   0  0  0  0  0  0  0  0  0  0  0  0
    4.5991   -2.6026    0.7999 H   0  0  0  0  0  0  0  0  0  0  0  0
    2.3941   -1.6010    1.5956 H   0  0  0  0  0  0  0  0  0  0  0  0
    3.3523   -0.1552    1.9556 H   0  0  0  0  0  0  0  0  0  0  0  0
    5.7717   -0.8213    3.1368 H   0  0  0  0  0  0  0  0  0  0  0  0
    6.3199   -1.3220    5.4887 H   0  0  0  0  0  0  0  0  0  0  0  0
    5.5683   -2.2925    7.4039 H   0  0  0  0  0  0  0  0  0  0  0  0
    2.6637   -3.2501    7.0386 H   0  0  0  0  0  0  0  0  0  0  0  0
    1.9100   -2.7045    3.6360 H   0  0  0  0  0  0  0  0  0  0  0  0
  1  2  2  0  0  0  0
  2  3  1  0  0  0  0
  2  4  1  0  0  0  0
  4  5  1  0  0  0  0
  4  9  2  0  0  0  0
  5  6  2  0  0  0  0
  5 20  1  0  0  0  0
  6  7  1  0  0  0  0
  6 21  1  0  0  0  0
  7  8  2  0  0  0  0
  7 22  1  0  0  0  0
  8  9  1  0  0  0  0
  8 23  1  0  0  0  0
  9 10  1  0  0  0  0
 10 11  1  0  0  0  0
 10 24  1  0  0  0  0
 11 12  1  0  0  0  0
 11 25  1  0  0  0  0
 11 26  1  0  0  0  0
 12 13  1  0  0  0  0
 12 19  2  0  0  0  0
 13 14  2  0  0  0  0
 13 27  1  0  0  0  0
 14 15  1  0  0  0  0
 14 28  1  0  0  0  0
 15 16  1  0  0  0  0
 15 17  2  0  0  0  0
 16 29  1  0  0  0  0
 17 18  1  0  0  0  0
 17 19  1  0  0  0  0
 18 30  1  0  0  0  0
 19 31  1  0  0  0  0
M  CHG  2   2   1   3  -1
M  END
>  <Line_Number>
215


> <IC50>
45100

$$$$
