43719772.0
 OpenBabel09302502333D

 31 32  0  0  0  0  0  0  0  0999 V2000
    3.6438    2.1350   -2.7344 O   0  0  0  0  0  0  0  0  0  0  0  0
    4.6459    1.6248   -2.2134 N   0  3  0  0  0  0  0  0  0  0  0  0
    5.5513    2.2636   -1.6580 O   0  5  0  0  0  0  0  0  0  0  0  0
    4.7718    0.1638   -2.2634 C   0  0  0  0  0  0  0  0  0  0  0  0
    3.7849   -0.5997   -2.8980 C   0  0  0  0  0  0  0  0  0  0  0  0
    3.9331   -1.9890   -2.9814 C   0  0  0  0  0  0  0  0  0  0  0  0
    5.0628   -2.6212   -2.4514 C   0  0  0  0  0  0  0  0  0  0  0  0
    5.2828   -3.9946   -2.5057 N   0  0  0  0  0  0  0  0  0  0  0  0
    4.7606   -4.7613   -3.6300 C   0  0  0  0  0  0  0  0  0  0  0  0
    5.6546   -5.9601   -3.8414 C   0  0  0  0  0  0  0  0  0  0  0  0
    7.0257   -5.7734   -4.1139 C   0  0  0  0  0  0  0  0  0  0  0  0
    7.8765   -6.8625   -4.3160 C   0  0  0  0  0  0  0  0  0  0  0  0
    7.3517   -8.1451   -4.2470 C   0  0  0  0  0  0  0  0  0  0  0  0
    8.1287   -9.2542   -4.4357 O   0  0  0  0  0  0  0  0  0  0  0  0
    5.9980   -8.3403   -3.9796 C   0  0  0  0  0  0  0  0  0  0  0  0
    5.4930   -9.6080   -3.9079 O   0  0  0  0  0  0  0  0  0  0  0  0
    5.1437   -7.2622   -3.7811 C   0  0  0  0  0  0  0  0  0  0  0  0
    6.0062   -1.8441   -1.7647 C   0  0  0  0  0  0  0  0  0  0  0  0
    5.8808   -0.4562   -1.6821 C   0  0  0  0  0  0  0  0  0  0  0  0
    2.9043   -0.1348   -3.3362 H   0  0  0  0  0  0  0  0  0  0  0  0
    3.1505   -2.5649   -3.4685 H   0  0  0  0  0  0  0  0  0  0  0  0
    5.0798   -4.4443   -1.6146 H   0  0  0  0  0  0  0  0  0  0  0  0
    4.7647   -4.1766   -4.5590 H   0  0  0  0  0  0  0  0  0  0  0  0
    3.7275   -5.0679   -3.4285 H   0  0  0  0  0  0  0  0  0  0  0  0
    7.4310   -4.7628   -4.1536 H   0  0  0  0  0  0  0  0  0  0  0  0
    8.9281   -6.6860   -4.5153 H   0  0  0  0  0  0  0  0  0  0  0  0
    9.0323   -8.9554   -4.6377 H   0  0  0  0  0  0  0  0  0  0  0  0
    6.2697  -10.1836   -4.0598 H   0  0  0  0  0  0  0  0  0  0  0  0
    4.0930   -7.4466   -3.5778 H   0  0  0  0  0  0  0  0  0  0  0  0
    6.8770   -2.3275   -1.3247 H   0  0  0  0  0  0  0  0  0  0  0  0
    6.6565    0.1158   -1.1788 H   0  0  0  0  0  0  0  0  0  0  0  0
  1  2  2  0  0  0  0
  2  3  1  0  0  0  0
  2  4  1  0  0  0  0
  4  5  1  0  0  0  0
  4 19  2  0  0  0  0
  5  6  2  0  0  0  0
  5 20  1  0  0  0  0
  6  7  1  0  0  0  0
  6 21  1  0  0  0  0
  7  8  1  0  0  0  0
  7 18  2  0  0  0  0
  8  9  1  0  0  0  0
  8 22  1  0  0  0  0
  9 10  1  0  0  0  0
  9 23  1  0  0  0  0
  9 24  1  0  0  0  0
 10 11  1  0  0  0  0
 10 17  2  0  0  0  0
 11 12  2  0  0  0  0
 11 25  1  0  0  0  0
 12 13  1  0  0  0  0
 12 26  1  0  0  0  0
 13 14  1  0  0  0  0
 13 15  2  0  0  0  0
 14 27  1  0  0  0  0
 15 16  1  0  0  0  0
 15 17  1  0  0  0  0
 16 28  1  0  0  0  0
 17 29  1  0  0  0  0
 18 19  1  0  0  0  0
 18 30  1  0  0  0  0
 19 31  1  0  0  0  0
M  CHG  2   2   1   3  -1
M  END
>  <Line_Number>
216


> <IC50>
1270

$$$$
