964801.0
 OpenBabel09302502333D

 30 32  0  0  0  0  0  0  0  0999 V2000
    1.3624   -3.0021    4.3969 Cl  0  0  0  0  0  0  0  0  0  0  0  0
    2.0963   -2.1225    3.1130 C   0  0  0  0  0  0  0  0  0  0  0  0
    2.9632   -1.0730    3.3968 C   0  0  0  0  0  0  0  0  0  0  0  0
    3.5479   -0.3484    2.3511 C   0  0  0  0  0  0  0  0  0  0  0  0
    3.2944   -0.6697    1.0129 C   0  0  0  0  0  0  0  0  0  0  0  0
    3.7671    0.0670   -0.0614 N   0  0  0  0  0  0  0  0  0  0  0  0
    4.6288    1.2317    0.0487 C   0  0  0  0  0  0  0  0  0  0  0  0
    6.1122    0.9273    0.0934 C   0  0  0  0  0  0  0  0  0  0  0  0
    6.6508   -0.3765   -0.0134 C   0  0  0  0  0  0  0  0  0  0  0  0
    8.0339   -0.5963    0.0196 C   0  0  0  0  0  0  0  0  0  0  0  0
    8.8579    0.4959    0.1627 C   0  0  0  0  0  0  0  0  0  0  0  0
    8.3525    1.7680    0.2656 C   0  0  0  0  0  0  0  0  0  0  0  0
    6.9964    2.0161    0.2300 C   0  0  0  0  0  0  0  0  0  0  0  0
    9.3269    2.7061    0.4032 O   0  0  0  0  0  0  0  0  0  0  0  0
   10.5037    1.8712    0.4170 C   0  0  0  0  0  0  0  0  0  0  0  0
   10.2156    0.4707    0.2227 O   0  0  0  0  0  0  0  0  0  0  0  0
    2.4061   -1.7255    0.7560 C   0  0  0  0  0  0  0  0  0  0  0  0
    1.8131   -2.4537    1.7939 C   0  0  0  0  0  0  0  0  0  0  0  0
    3.1854   -0.8047    4.4260 H   0  0  0  0  0  0  0  0  0  0  0  0
    4.2155    0.4655    2.6155 H   0  0  0  0  0  0  0  0  0  0  0  0
    3.8358   -0.4315   -0.9420 H   0  0  0  0  0  0  0  0  0  0  0  0
    4.3485    1.8516    0.9083 H   0  0  0  0  0  0  0  0  0  0  0  0
    4.4492    1.8477   -0.8413 H   0  0  0  0  0  0  0  0  0  0  0  0
    5.9945   -1.2382   -0.1145 H   0  0  0  0  0  0  0  0  0  0  0  0
    8.4439   -1.5983   -0.0595 H   0  0  0  0  0  0  0  0  0  0  0  0
    6.6307    3.0352    0.3098 H   0  0  0  0  0  0  0  0  0  0  0  0
   11.0076    1.9939    1.3832 H   0  0  0  0  0  0  0  0  0  0  0  0
   11.1809    2.2054   -0.3771 H   0  0  0  0  0  0  0  0  0  0  0  0
    2.1498   -1.9819   -0.2698 H   0  0  0  0  0  0  0  0  0  0  0  0
    1.1259   -3.2620    1.5616 H   0  0  0  0  0  0  0  0  0  0  0  0
  1  2  1  0  0  0  0
  2  3  1  0  0  0  0
  2 18  2  0  0  0  0
  3  4  2  0  0  0  0
  3 19  1  0  0  0  0
  4  5  1  0  0  0  0
  4 20  1  0  0  0  0
  5  6  1  0  0  0  0
  5 17  2  0  0  0  0
  6  7  1  0  0  0  0
  6 21  1  0  0  0  0
  7  8  1  0  0  0  0
  7 22  1  0  0  0  0
  7 23  1  0  0  0  0
  8  9  1  0  0  0  0
  8 13  2  0  0  0  0
  9 10  2  0  0  0  0
  9 24  1  0  0  0  0
 10 11  1  0  0  0  0
 10 25  1  0  0  0  0
 11 12  2  0  0  0  0
 11 16  1  0  0  0  0
 12 13  1  0  0  0  0
 12 14  1  0  0  0  0
 13 26  1  0  0  0  0
 14 15  1  0  0  0  0
 15 16  1  0  0  0  0
 15 27  1  0  0  0  0
 15 28  1  0  0  0  0
 17 18  1  0  0  0  0
 17 29  1  0  0  0  0
 18 30  1  0  0  0  0
M  END
>  <Line_Number>
217


> <IC50>
500000

$$$$
