855075.0
 OpenBabel09302502333D

 39 40  0  0  0  0  0  0  0  0999 V2000
    1.7393    0.4828    1.4503 C   0  0  0  0  0  0  0  0  0  0  0  0
    2.9606    0.2205    0.7663 O   0  0  0  0  0  0  0  0  0  0  0  0
    3.4062    1.1953   -0.0818 C   0  0  0  0  0  0  0  0  0  0  0  0
    2.7642    2.4031   -0.3359 C   0  0  0  0  0  0  0  0  0  0  0  0
    3.3345    3.3369   -1.2095 C   0  0  0  0  0  0  0  0  0  0  0  0
    4.5358    3.0814   -1.8813 C   0  0  0  0  0  0  0  0  0  0  0  0
    5.1755    4.0123   -2.7131 N   0  0  0  0  0  0  0  0  0  0  0  0
    4.5125    5.2810   -2.9837 C   0  0  0  0  0  0  0  0  0  0  0  0
    5.2780    6.1179   -3.9782 C   0  0  0  0  0  0  0  0  0  0  0  0
    4.6520    6.5644   -5.1438 C   0  0  0  0  0  0  0  0  0  0  0  0
    5.3281    7.3946   -6.0501 C   0  0  0  0  0  0  0  0  0  0  0  0
    6.6440    7.8307   -5.8319 C   0  0  0  0  0  0  0  0  0  0  0  0
    7.3000    8.6177   -6.7699 N   0  0  0  0  0  0  0  0  0  0  0  0
    6.5733    9.6310   -7.5356 C   0  0  0  0  0  0  0  0  0  0  0  0
    8.7469    8.8034   -6.7409 C   0  0  0  0  0  0  0  0  0  0  0  0
    7.2531    7.3709   -4.6527 C   0  0  0  0  0  0  0  0  0  0  0  0
    6.5895    6.5322   -3.7396 C   0  0  0  0  0  0  0  0  0  0  0  0
    5.1749    1.8659   -1.6084 C   0  0  0  0  0  0  0  0  0  0  0  0
    4.6173    0.9339   -0.7208 C   0  0  0  0  0  0  0  0  0  0  0  0
    1.5362   -0.3608    2.1168 H   0  0  0  0  0  0  0  0  0  0  0  0
    0.9048    0.5592    0.7447 H   0  0  0  0  0  0  0  0  0  0  0  0
    1.8151    1.3829    2.0703 H   0  0  0  0  0  0  0  0  0  0  0  0
    1.8209    2.6620    0.1304 H   0  0  0  0  0  0  0  0  0  0  0  0
    2.7953    4.2676   -1.3545 H   0  0  0  0  0  0  0  0  0  0  0  0
    5.5700    3.5750   -3.5422 H   0  0  0  0  0  0  0  0  0  0  0  0
    4.4180    5.8623   -2.0585 H   0  0  0  0  0  0  0  0  0  0  0  0
    3.5044    5.0987   -3.3746 H   0  0  0  0  0  0  0  0  0  0  0  0
    3.6297    6.2706   -5.3688 H   0  0  0  0  0  0  0  0  0  0  0  0
    4.7965    7.6657   -6.9545 H   0  0  0  0  0  0  0  0  0  0  0  0
    5.4845    9.5451   -7.4980 H   0  0  0  0  0  0  0  0  0  0  0  0
    6.8680    9.5739   -8.5893 H   0  0  0  0  0  0  0  0  0  0  0  0
    6.8239   10.6330   -7.1683 H   0  0  0  0  0  0  0  0  0  0  0  0
    9.2844    7.9817   -6.2588 H   0  0  0  0  0  0  0  0  0  0  0  0
    9.0079    9.7431   -6.2419 H   0  0  0  0  0  0  0  0  0  0  0  0
    9.1259    8.8496   -7.7684 H   0  0  0  0  0  0  0  0  0  0  0  0
    8.2639    7.6727   -4.3964 H   0  0  0  0  0  0  0  0  0  0  0  0
    7.1059    6.2106   -2.8371 H   0  0  0  0  0  0  0  0  0  0  0  0
    6.1322    1.6405   -2.0713 H   0  0  0  0  0  0  0  0  0  0  0  0
    5.1411    0.0018   -0.5217 H   0  0  0  0  0  0  0  0  0  0  0  0
  1  2  1  0  0  0  0
  1 20  1  0  0  0  0
  1 21  1  0  0  0  0
  1 22  1  0  0  0  0
  2  3  1  0  0  0  0
  3  4  1  0  0  0  0
  3 19  2  0  0  0  0
  4  5  2  0  0  0  0
  4 23  1  0  0  0  0
  5  6  1  0  0  0  0
  5 24  1  0  0  0  0
  6  7  1  0  0  0  0
  6 18  2  0  0  0  0
  7  8  1  0  0  0  0
  7 25  1  0  0  0  0
  8  9  1  0  0  0  0
  8 26  1  0  0  0  0
  8 27  1  0  0  0  0
  9 10  1  0  0  0  0
  9 17  2  0  0  0  0
 10 11  2  0  0  0  0
 10 28  1  0  0  0  0
 11 12  1  0  0  0  0
 11 29  1  0  0  0  0
 12 13  1  0  0  0  0
 12 16  2  0  0  0  0
 13 14  1  0  0  0  0
 13 15  1  0  0  0  0
 14 30  1  0  0  0  0
 14 31  1  0  0  0  0
 14 32  1  0  0  0  0
 15 33  1  0  0  0  0
 15 34  1  0  0  0  0
 15 35  1  0  0  0  0
 16 17  1  0  0  0  0
 16 36  1  0  0  0  0
 17 37  1  0  0  0  0
 18 19  1  0  0  0  0
 18 38  1  0  0  0  0
 19 39  1  0  0  0  0
M  END
>  <Line_Number>
218


> <IC50>
500000

$$$$
