1133085.0
 OpenBabel09302502333D

 29 30  0  0  0  0  0  0  0  0999 V2000
    2.2050   -2.4418   -1.4476 O   0  0  0  0  0  0  0  0  0  0  0  0
    3.3168   -1.9982   -1.1241 N   0  3  0  0  0  0  0  0  0  0  0  0
    4.2038   -1.6757   -1.9279 O   0  5  0  0  0  0  0  0  0  0  0  0
    3.5993   -1.8354    0.3084 C   0  0  0  0  0  0  0  0  0  0  0  0
    2.6086   -2.1471    1.2482 C   0  0  0  0  0  0  0  0  0  0  0  0
    2.8816   -1.9899    2.6066 C   0  0  0  0  0  0  0  0  0  0  0  0
    4.1332   -1.5244    3.0241 C   0  0  0  0  0  0  0  0  0  0  0  0
    5.1298   -1.2010    2.0880 C   0  0  0  0  0  0  0  0  0  0  0  0
    6.4888   -0.7089    2.5413 C   0  0  0  0  0  0  0  0  0  0  0  0
    7.3875   -1.8390    2.7049 N   0  0  0  0  0  0  0  0  0  0  0  0
    8.7056   -1.6664    3.1339 C   0  0  0  0  0  0  0  0  0  0  0  0
    9.3141   -0.4209    3.3190 C   0  0  0  0  0  0  0  0  0  0  0  0
   10.6631   -0.3135    3.6892 C   0  0  0  0  0  0  0  0  0  0  0  0
   11.4376   -1.4592    3.8451 C   0  0  0  0  0  0  0  0  0  0  0  0
   10.8604   -2.7041    3.6246 C   0  0  0  0  0  0  0  0  0  0  0  0
   11.8173   -4.1263    3.7786 Cl  0  0  0  0  0  0  0  0  0  0  0  0
    9.5118   -2.8093    3.2697 C   0  0  0  0  0  0  0  0  0  0  0  0
    4.8561   -1.3686    0.7211 C   0  0  0  0  0  0  0  0  0  0  0  0
    1.6294   -2.5108    0.9410 H   0  0  0  0  0  0  0  0  0  0  0  0
    2.1185   -2.2317    3.3437 H   0  0  0  0  0  0  0  0  0  0  0  0
    4.3257   -1.4129    4.0900 H   0  0  0  0  0  0  0  0  0  0  0  0
    6.3807   -0.1463    3.4766 H   0  0  0  0  0  0  0  0  0  0  0  0
    6.8814   -0.0178    1.7842 H   0  0  0  0  0  0  0  0  0  0  0  0
    6.9478   -2.6591    3.1169 H   0  0  0  0  0  0  0  0  0  0  0  0
    8.7543    0.5011    3.1946 H   0  0  0  0  0  0  0  0  0  0  0  0
   11.1056    0.6659    3.8467 H   0  0  0  0  0  0  0  0  0  0  0  0
   12.4852   -1.3739    4.1228 H   0  0  0  0  0  0  0  0  0  0  0  0
    9.0910   -3.7922    3.0757 H   0  0  0  0  0  0  0  0  0  0  0  0
    5.6278   -1.1329   -0.0096 H   0  0  0  0  0  0  0  0  0  0  0  0
  1  2  2  0  0  0  0
  2  3  1  0  0  0  0
  2  4  1  0  0  0  0
  4  5  1  0  0  0  0
  4 18  2  0  0  0  0
  5  6  2  0  0  0  0
  5 19  1  0  0  0  0
  6  7  1  0  0  0  0
  6 20  1  0  0  0  0
  7  8  2  0  0  0  0
  7 21  1  0  0  0  0
  8  9  1  0  0  0  0
  8 18  1  0  0  0  0
  9 10  1  0  0  0  0
  9 22  1  0  0  0  0
  9 23  1  0  0  0  0
 10 11  1  0  0  0  0
 10 24  1  0  0  0  0
 11 12  1  0  0  0  0
 11 17  2  0  0  0  0
 12 13  2  0  0  0  0
 12 25  1  0  0  0  0
 13 14  1  0  0  0  0
 13 26  1  0  0  0  0
 14 15  2  0  0  0  0
 14 27  1  0  0  0  0
 15 16  1  0  0  0  0
 15 17  1  0  0  0  0
 17 28  1  0  0  0  0
 18 29  1  0  0  0  0
M  CHG  2   2   1   3  -1
M  END
>  <Line_Number>
219


> <IC50>
410300

$$$$
