49844401.0
 OpenBabel09302502333D

 31 32  0  0  0  0  0  0  0  0999 V2000
    2.0972    1.3565    0.3602 O   0  0  0  0  0  0  0  0  0  0  0  0
    1.0195    0.5252    0.2659 C   0  0  0  0  0  0  0  0  0  0  0  0
    0.0459    0.5128    1.2572 C   0  0  0  0  0  0  0  0  0  0  0  0
   -1.0471   -0.3542    1.1461 C   0  0  0  0  0  0  0  0  0  0  0  0
   -1.2053   -1.2160    0.0405 C   0  0  0  0  0  0  0  0  0  0  0  0
   -2.4229   -2.1200    0.0082 C   0  0  0  0  0  0  0  0  0  0  0  0
   -3.7540   -1.3450    0.0103 C   0  0  0  0  0  0  0  0  0  0  0  0
   -5.0341   -2.1562    0.0366 C   0  0  0  0  0  0  0  0  0  0  0  0
   -6.2542   -1.4537    0.0491 C   0  0  0  0  0  0  0  0  0  0  0  0
   -7.4784   -2.1269    0.0724 C   0  0  0  0  0  0  0  0  0  0  0  0
   -7.5049   -3.5186    0.0835 C   0  0  0  0  0  0  0  0  0  0  0  0
   -6.3061   -4.2266    0.0783 C   0  0  0  0  0  0  0  0  0  0  0  0
   -6.3356   -5.9481    0.0959 Cl  0  0  0  0  0  0  0  0  0  0  0  0
   -5.0774   -3.5568    0.0580 C   0  0  0  0  0  0  0  0  0  0  0  0
   -0.2037   -1.1918   -0.9407 C   0  0  0  0  0  0  0  0  0  0  0  0
   -0.1974   -1.9862   -2.0581 O   0  0  0  0  0  0  0  0  0  0  0  0
    0.8933   -0.3257   -0.8267 C   0  0  0  0  0  0  0  0  0  0  0  0
    1.8529   -0.3377   -1.8050 O   0  0  0  0  0  0  0  0  0  0  0  0
    2.0317    1.8732    1.1771 H   0  0  0  0  0  0  0  0  0  0  0  0
    0.1201    1.1624    2.1236 H   0  0  0  0  0  0  0  0  0  0  0  0
   -1.7832   -0.3526    1.9481 H   0  0  0  0  0  0  0  0  0  0  0  0
   -2.3669   -2.7800    0.8853 H   0  0  0  0  0  0  0  0  0  0  0  0
   -2.4051   -2.7791   -0.8650 H   0  0  0  0  0  0  0  0  0  0  0  0
   -3.7811   -0.7032   -0.8796 H   0  0  0  0  0  0  0  0  0  0  0  0
   -3.7865   -0.6806    0.8827 H   0  0  0  0  0  0  0  0  0  0  0  0
   -6.2553   -0.3645    0.0427 H   0  0  0  0  0  0  0  0  0  0  0  0
   -8.4077   -1.5650    0.0803 H   0  0  0  0  0  0  0  0  0  0  0  0
   -8.4566   -4.0422    0.0968 H   0  0  0  0  0  0  0  0  0  0  0  0
   -4.1670   -4.1474    0.0596 H   0  0  0  0  0  0  0  0  0  0  0  0
   -0.8507   -2.6934   -1.9626 H   0  0  0  0  0  0  0  0  0  0  0  0
    1.5382   -1.0015   -2.4476 H   0  0  0  0  0  0  0  0  0  0  0  0
  1  2  1  0  0  0  0
  1 19  1  0  0  0  0
  2  3  1  0  0  0  0
  2 17  2  0  0  0  0
  3  4  2  0  0  0  0
  3 20  1  0  0  0  0
  4  5  1  0  0  0  0
  4 21  1  0  0  0  0
  5  6  1  0  0  0  0
  5 15  2  0  0  0  0
  6  7  1  0  0  0  0
  6 22  1  0  0  0  0
  6 23  1  0  0  0  0
  7  8  1  0  0  0  0
  7 24  1  0  0  0  0
  7 25  1  0  0  0  0
  8  9  1  0  0  0  0
  8 14  2  0  0  0  0
  9 10  2  0  0  0  0
  9 26  1  0  0  0  0
 10 11  1  0  0  0  0
 10 27  1  0  0  0  0
 11 12  2  0  0  0  0
 11 28  1  0  0  0  0
 12 13  1  0  0  0  0
 12 14  1  0  0  0  0
 14 29  1  0  0  0  0
 15 16  1  0  0  0  0
 15 17  1  0  0  0  0
 16 30  1  0  0  0  0
 17 18  1  0  0  0  0
 18 31  1  0  0  0  0
M  END
>  <Line_Number>
21


> <IC50>
50000

$$$$
