4367631.0
 OpenBabel09302502333D

 35 36  0  0  0  0  0  0  0  0999 V2000
    1.0916   -0.2380   -0.3973 C   0  0  0  0  0  0  0  0  0  0  0  0
    2.4535    0.0308   -0.0864 O   0  0  0  0  0  0  0  0  0  0  0  0
    3.1764   -0.9796    0.4908 C   0  0  0  0  0  0  0  0  0  0  0  0
    2.8529   -2.3338    0.3321 C   0  0  0  0  0  0  0  0  0  0  0  0
    3.6602   -3.3376    0.8811 C   0  0  0  0  0  0  0  0  0  0  0  0
    4.8153   -3.0110    1.5979 C   0  0  0  0  0  0  0  0  0  0  0  0
    5.6827   -4.0897    2.2035 C   0  0  0  0  0  0  0  0  0  0  0  0
    6.7036   -4.5061    1.2552 N   0  0  0  0  0  0  0  0  0  0  0  0
    7.5605   -5.5672    1.5478 C   0  0  0  0  0  0  0  0  0  0  0  0
    7.6919   -6.1406    2.8176 C   0  0  0  0  0  0  0  0  0  0  0  0
    8.6122   -7.1673    3.0632 C   0  0  0  0  0  0  0  0  0  0  0  0
    9.4433   -7.6127    2.0414 C   0  0  0  0  0  0  0  0  0  0  0  0
   10.5692   -8.8794    2.3374 Cl  0  0  0  0  0  0  0  0  0  0  0  0
    9.3719   -7.0271    0.7829 C   0  0  0  0  0  0  0  0  0  0  0  0
    8.4428   -6.0063    0.5464 C   0  0  0  0  0  0  0  0  0  0  0  0
    5.1568   -1.6572    1.7294 C   0  0  0  0  0  0  0  0  0  0  0  0
    4.3391   -0.6425    1.2049 C   0  0  0  0  0  0  0  0  0  0  0  0
    4.8235    0.6211    1.4397 O   0  0  0  0  0  0  0  0  0  0  0  0
    3.8566    1.6514    1.6108 C   0  0  0  0  0  0  0  0  0  0  0  0
    0.6349    0.7005   -0.7273 H   0  0  0  0  0  0  0  0  0  0  0  0
    0.5455   -0.5832    0.4871 H   0  0  0  0  0  0  0  0  0  0  0  0
    1.0030   -0.9505   -1.2226 H   0  0  0  0  0  0  0  0  0  0  0  0
    1.9852   -2.6466   -0.2392 H   0  0  0  0  0  0  0  0  0  0  0  0
    3.3821   -4.3794    0.7363 H   0  0  0  0  0  0  0  0  0  0  0  0
    5.0474   -4.9364    2.4926 H   0  0  0  0  0  0  0  0  0  0  0  0
    6.1463   -3.7009    3.1186 H   0  0  0  0  0  0  0  0  0  0  0  0
    6.3788   -4.5190    0.2917 H   0  0  0  0  0  0  0  0  0  0  0  0
    7.0762   -5.8083    3.6501 H   0  0  0  0  0  0  0  0  0  0  0  0
    8.6768   -7.6082    4.0544 H   0  0  0  0  0  0  0  0  0  0  0  0
   10.0367   -7.3463   -0.0144 H   0  0  0  0  0  0  0  0  0  0  0  0
    8.4207   -5.5411   -0.4368 H   0  0  0  0  0  0  0  0  0  0  0  0
    6.0660   -1.3781    2.2584 H   0  0  0  0  0  0  0  0  0  0  0  0
    4.3380    2.4685    2.1579 H   0  0  0  0  0  0  0  0  0  0  0  0
    2.9977    1.3211    2.2057 H   0  0  0  0  0  0  0  0  0  0  0  0
    3.5440    2.0550    0.6436 H   0  0  0  0  0  0  0  0  0  0  0  0
  1  2  1  0  0  0  0
  1 20  1  0  0  0  0
  1 21  1  0  0  0  0
  1 22  1  0  0  0  0
  2  3  1  0  0  0  0
  3  4  1  0  0  0  0
  3 17  2  0  0  0  0
  4  5  2  0  0  0  0
  4 23  1  0  0  0  0
  5  6  1  0  0  0  0
  5 24  1  0  0  0  0
  6  7  1  0  0  0  0
  6 16  2  0  0  0  0
  7  8  1  0  0  0  0
  7 25  1  0  0  0  0
  7 26  1  0  0  0  0
  8  9  1  0  0  0  0
  8 27  1  0  0  0  0
  9 10  1  0  0  0  0
  9 15  2  0  0  0  0
 10 11  2  0  0  0  0
 10 28  1  0  0  0  0
 11 12  1  0  0  0  0
 11 29  1  0  0  0  0
 12 13  1  0  0  0  0
 12 14  2  0  0  0  0
 14 15  1  0  0  0  0
 14 30  1  0  0  0  0
 15 31  1  0  0  0  0
 16 17  1  0  0  0  0
 16 32  1  0  0  0  0
 17 18  1  0  0  0  0
 18 19  1  0  0  0  0
 19 33  1  0  0  0  0
 19 34  1  0  0  0  0
 19 35  1  0  0  0  0
M  END
>  <Line_Number>
220


> <IC50>
500000

$$$$
