12095765.0
 OpenBabel09302502333D

 29 30  0  0  0  0  0  0  0  0999 V2000
    4.1936    0.9428   -1.6835 O   0  0  0  0  0  0  0  0  0  0  0  0
    3.4746    0.4596   -0.7955 N   0  3  0  0  0  0  0  0  0  0  0  0
    2.7162    1.0987   -0.0578 O   0  5  0  0  0  0  0  0  0  0  0  0
    3.5253   -0.9818   -0.6229 C   0  0  0  0  0  0  0  0  0  0  0  0
    3.1751   -1.7635   -1.7351 C   0  0  0  0  0  0  0  0  0  0  0  0
    3.2708   -3.1493   -1.6527 C   0  0  0  0  0  0  0  0  0  0  0  0
    3.7158   -3.7408   -0.4714 C   0  0  0  0  0  0  0  0  0  0  0  0
    4.0434   -2.9533    0.6417 C   0  0  0  0  0  0  0  0  0  0  0  0
    3.9508   -1.5511    0.5930 C   0  0  0  0  0  0  0  0  0  0  0  0
    4.3386   -0.7335    1.8100 C   0  0  0  0  0  0  0  0  0  0  0  0
    3.1580   -0.1225    2.4071 N   0  0  0  0  0  0  0  0  0  0  0  0
    3.2908    0.6837    3.5496 C   0  0  0  0  0  0  0  0  0  0  0  0
    4.4901    1.2591    3.9820 C   0  0  0  0  0  0  0  0  0  0  0  0
    4.5096    2.1448    5.0671 C   0  0  0  0  0  0  0  0  0  0  0  0
    3.3281    2.4614    5.7323 C   0  0  0  0  0  0  0  0  0  0  0  0
    3.3532    3.5667    7.0498 Cl  0  0  0  0  0  0  0  0  0  0  0  0
    2.1262    1.8966    5.3239 C   0  0  0  0  0  0  0  0  0  0  0  0
    2.1124    1.0212    4.2337 C   0  0  0  0  0  0  0  0  0  0  0  0
    2.8392   -1.2996   -2.6607 H   0  0  0  0  0  0  0  0  0  0  0  0
    3.0098   -3.7677   -2.5083 H   0  0  0  0  0  0  0  0  0  0  0  0
    3.8092   -4.8245   -0.4134 H   0  0  0  0  0  0  0  0  0  0  0  0
    4.3827   -3.4524    1.5488 H   0  0  0  0  0  0  0  0  0  0  0  0
    5.0847    0.0099    1.5070 H   0  0  0  0  0  0  0  0  0  0  0  0
    4.8127   -1.3879    2.5515 H   0  0  0  0  0  0  0  0  0  0  0  0
    2.6517    0.4442    1.7137 H   0  0  0  0  0  0  0  0  0  0  0  0
    5.4285    1.0617    3.4750 H   0  0  0  0  0  0  0  0  0  0  0  0
    5.4496    2.5969    5.3763 H   0  0  0  0  0  0  0  0  0  0  0  0
    1.1979    2.1375    5.8333 H   0  0  0  0  0  0  0  0  0  0  0  0
    1.1650    0.5942    3.9114 H   0  0  0  0  0  0  0  0  0  0  0  0
  1  2  2  0  0  0  0
  2  3  1  0  0  0  0
  2  4  1  0  0  0  0
  4  5  1  0  0  0  0
  4  9  2  0  0  0  0
  5  6  2  0  0  0  0
  5 19  1  0  0  0  0
  6  7  1  0  0  0  0
  6 20  1  0  0  0  0
  7  8  2  0  0  0  0
  7 21  1  0  0  0  0
  8  9  1  0  0  0  0
  8 22  1  0  0  0  0
  9 10  1  0  0  0  0
 10 11  1  0  0  0  0
 10 23  1  0  0  0  0
 10 24  1  0  0  0  0
 11 12  1  0  0  0  0
 11 25  1  0  0  0  0
 12 13  1  0  0  0  0
 12 18  2  0  0  0  0
 13 14  2  0  0  0  0
 13 26  1  0  0  0  0
 14 15  1  0  0  0  0
 14 27  1  0  0  0  0
 15 16  1  0  0  0  0
 15 17  2  0  0  0  0
 17 18  1  0  0  0  0
 17 28  1  0  0  0  0
 18 29  1  0  0  0  0
M  CHG  2   2   1   3  -1
M  END
>  <Line_Number>
221


> <IC50>
238700

$$$$
