292417.0
 OpenBabel09302502333D

 37 38  0  0  0  0  0  0  0  0999 V2000
    1.2419    0.5816   -0.3312 C   0  0  0  0  0  0  0  0  0  0  0  0
    2.4387   -0.0658    0.1901 N   0  0  0  0  0  0  0  0  0  0  0  0
    2.9836    0.4371    1.4455 C   0  0  0  0  0  0  0  0  0  0  0  0
    3.1571   -0.9777   -0.5775 C   0  0  0  0  0  0  0  0  0  0  0  0
    2.7948   -1.2980   -1.8961 C   0  0  0  0  0  0  0  0  0  0  0  0
    3.4946   -2.2474   -2.6567 C   0  0  0  0  0  0  0  0  0  0  0  0
    4.5834   -2.9351   -2.1137 C   0  0  0  0  0  0  0  0  0  0  0  0
    5.2869   -4.0141   -2.8989 C   0  0  0  0  0  0  0  0  0  0  0  0
    6.4100   -3.4581   -3.6446 N   0  0  0  0  0  0  0  0  0  0  0  0
    7.2089   -4.3163   -4.4090 C   0  0  0  0  0  0  0  0  0  0  0  0
    6.7290   -5.5078   -4.9762 C   0  0  0  0  0  0  0  0  0  0  0  0
    7.5240   -6.2984   -5.8141 C   0  0  0  0  0  0  0  0  0  0  0  0
    8.8191   -5.9008   -6.1257 C   0  0  0  0  0  0  0  0  0  0  0  0
    9.3041   -4.7008   -5.5977 C   0  0  0  0  0  0  0  0  0  0  0  0
   10.6631   -4.2634   -5.9354 N   0  3  0  0  0  0  0  0  0  0  0  0
   11.3188   -4.9672   -6.7178 O   0  0  0  0  0  0  0  0  0  0  0  0
   11.0814   -3.2197   -5.4129 O   0  5  0  0  0  0  0  0  0  0  0  0
    8.5040   -3.9066   -4.7581 C   0  0  0  0  0  0  0  0  0  0  0  0
    4.9845   -2.6114   -0.8177 C   0  0  0  0  0  0  0  0  0  0  0  0
    4.2805   -1.6547   -0.0711 C   0  0  0  0  0  0  0  0  0  0  0  0
    0.7660    1.2218    0.4201 H   0  0  0  0  0  0  0  0  0  0  0  0
    0.4912   -0.1620   -0.6221 H   0  0  0  0  0  0  0  0  0  0  0  0
    1.4807    1.2148   -1.1923 H   0  0  0  0  0  0  0  0  0  0  0  0
    2.3452    1.2093    1.8889 H   0  0  0  0  0  0  0  0  0  0  0  0
    3.9704    0.8877    1.2914 H   0  0  0  0  0  0  0  0  0  0  0  0
    3.0616   -0.3668    2.1856 H   0  0  0  0  0  0  0  0  0  0  0  0
    1.9480   -0.8137   -2.3734 H   0  0  0  0  0  0  0  0  0  0  0  0
    3.1696   -2.4539   -3.6739 H   0  0  0  0  0  0  0  0  0  0  0  0
    4.5555   -4.4775   -3.5714 H   0  0  0  0  0  0  0  0  0  0  0  0
    5.6350   -4.7933   -2.2087 H   0  0  0  0  0  0  0  0  0  0  0  0
    6.9499   -2.8002   -3.0864 H   0  0  0  0  0  0  0  0  0  0  0  0
    5.7132   -5.8450   -4.7913 H   0  0  0  0  0  0  0  0  0  0  0  0
    7.1193   -7.2170   -6.2336 H   0  0  0  0  0  0  0  0  0  0  0  0
    9.4237   -6.5208   -6.7840 H   0  0  0  0  0  0  0  0  0  0  0  0
    8.8862   -2.9644   -4.3714 H   0  0  0  0  0  0  0  0  0  0  0  0
    5.8343   -3.1137   -0.3615 H   0  0  0  0  0  0  0  0  0  0  0  0
    4.6282   -1.4691    0.9406 H   0  0  0  0  0  0  0  0  0  0  0  0
  1  2  1  0  0  0  0
  1 21  1  0  0  0  0
  1 22  1  0  0  0  0
  1 23  1  0  0  0  0
  2  3  1  0  0  0  0
  2  4  1  0  0  0  0
  3 24  1  0  0  0  0
  3 25  1  0  0  0  0
  3 26  1  0  0  0  0
  4  5  1  0  0  0  0
  4 20  2  0  0  0  0
  5  6  2  0  0  0  0
  5 27  1  0  0  0  0
  6  7  1  0  0  0  0
  6 28  1  0  0  0  0
  7  8  1  0  0  0  0
  7 19  2  0  0  0  0
  8  9  1  0  0  0  0
  8 29  1  0  0  0  0
  8 30  1  0  0  0  0
  9 10  1  0  0  0  0
  9 31  1  0  0  0  0
 10 11  1  0  0  0  0
 10 18  2  0  0  0  0
 11 12  2  0  0  0  0
 11 32  1  0  0  0  0
 12 13  1  0  0  0  0
 12 33  1  0  0  0  0
 13 14  2  0  0  0  0
 13 34  1  0  0  0  0
 14 15  1  0  0  0  0
 14 18  1  0  0  0  0
 15 16  2  0  0  0  0
 15 17  1  0  0  0  0
 18 35  1  0  0  0  0
 19 20  1  0  0  0  0
 19 36  1  0  0  0  0
 20 37  1  0  0  0  0
M  CHG  2  15   1  17  -1
M  END
>  <Line_Number>
222


> <IC50>
44600

$$$$
