9274128.0
 OpenBabel09302502333D

 31 32  0  0  0  0  0  0  0  0999 V2000
    1.4556   -0.3311   -0.3960 O   0  0  0  0  0  0  0  0  0  0  0  0
    2.4918   -0.1077    0.2508 N   0  3  0  0  0  0  0  0  0  0  0  0
    3.0023   -0.9050    1.0538 O   0  5  0  0  0  0  0  0  0  0  0  0
    3.1557    1.1866    0.0463 C   0  0  0  0  0  0  0  0  0  0  0  0
    2.6182    2.1160   -0.8533 C   0  0  0  0  0  0  0  0  0  0  0  0
    3.2685    3.3393   -1.0577 C   0  0  0  0  0  0  0  0  0  0  0  0
    4.4638    3.6378   -0.3797 C   0  0  0  0  0  0  0  0  0  0  0  0
    5.2099    4.9279   -0.6470 C   0  0  0  0  0  0  0  0  0  0  0  0
    4.7540    5.9857    0.2391 N   0  0  0  0  0  0  0  0  0  0  0  0
    5.2798    7.2789    0.1257 C   0  0  0  0  0  0  0  0  0  0  0  0
    6.3898    7.6092   -0.6664 C   0  0  0  0  0  0  0  0  0  0  0  0
    6.8878    8.9174   -0.7223 C   0  0  0  0  0  0  0  0  0  0  0  0
    6.3010    9.9258    0.0389 C   0  0  0  0  0  0  0  0  0  0  0  0
    5.2222    9.6023    0.8674 C   0  0  0  0  0  0  0  0  0  0  0  0
    4.5767   10.6566    1.6582 N   0  3  0  0  0  0  0  0  0  0  0  0
    4.9999   11.8153    1.5319 O   0  0  0  0  0  0  0  0  0  0  0  0
    3.6309   10.3331    2.3923 O   0  5  0  0  0  0  0  0  0  0  0  0
    4.7330    8.2889    0.9308 C   0  0  0  0  0  0  0  0  0  0  0  0
    4.9708    2.7052    0.5408 C   0  0  0  0  0  0  0  0  0  0  0  0
    4.3300    1.4796    0.7498 C   0  0  0  0  0  0  0  0  0  0  0  0
    1.7053    1.9013   -1.4074 H   0  0  0  0  0  0  0  0  0  0  0  0
    2.8483    4.0511   -1.7651 H   0  0  0  0  0  0  0  0  0  0  0  0
    5.0690    5.2082   -1.6984 H   0  0  0  0  0  0  0  0  0  0  0  0
    6.2830    4.7439   -0.4977 H   0  0  0  0  0  0  0  0  0  0  0  0
    3.7404    6.0028    0.3457 H   0  0  0  0  0  0  0  0  0  0  0  0
    6.8833    6.8614   -1.2806 H   0  0  0  0  0  0  0  0  0  0  0  0
    7.7310    9.1492   -1.3697 H   0  0  0  0  0  0  0  0  0  0  0  0
    6.6907   10.9388   -0.0229 H   0  0  0  0  0  0  0  0  0  0  0  0
    3.9160    8.0413    1.6065 H   0  0  0  0  0  0  0  0  0  0  0  0
    5.8852    2.9254    1.0915 H   0  0  0  0  0  0  0  0  0  0  0  0
    4.7602    0.7693    1.4521 H   0  0  0  0  0  0  0  0  0  0  0  0
  1  2  2  0  0  0  0
  2  3  1  0  0  0  0
  2  4  1  0  0  0  0
  4  5  1  0  0  0  0
  4 20  2  0  0  0  0
  5  6  2  0  0  0  0
  5 21  1  0  0  0  0
  6  7  1  0  0  0  0
  6 22  1  0  0  0  0
  7  8  1  0  0  0  0
  7 19  2  0  0  0  0
  8  9  1  0  0  0  0
  8 23  1  0  0  0  0
  8 24  1  0  0  0  0
  9 10  1  0  0  0  0
  9 25  1  0  0  0  0
 10 11  1  0  0  0  0
 10 18  2  0  0  0  0
 11 12  2  0  0  0  0
 11 26  1  0  0  0  0
 12 13  1  0  0  0  0
 12 27  1  0  0  0  0
 13 14  2  0  0  0  0
 13 28  1  0  0  0  0
 14 15  1  0  0  0  0
 14 18  1  0  0  0  0
 15 16  2  0  0  0  0
 15 17  1  0  0  0  0
 18 29  1  0  0  0  0
 19 20  1  0  0  0  0
 19 30  1  0  0  0  0
 20 31  1  0  0  0  0
M  CHG  4   2   1   3  -1  15   1  17  -1
M  END
>  <Line_Number>
223


> <IC50>
64900

$$$$
