682326.0
 OpenBabel09302502333D

 32 34  0  0  0  0  0  0  0  0999 V2000
    0.5721    0.5706    0.2907 O   0  0  0  0  0  0  0  0  0  0  0  0
    1.7494    0.5908   -0.0960 N   0  3  0  0  0  0  0  0  0  0  0  0
    2.2887   -0.3158   -0.7480 O   0  5  0  0  0  0  0  0  0  0  0  0
    2.5628    1.7629    0.2491 C   0  0  0  0  0  0  0  0  0  0  0  0
    1.9899    2.7991    0.9926 C   0  0  0  0  0  0  0  0  0  0  0  0
    2.7641    3.9089    1.3102 C   0  0  0  0  0  0  0  0  0  0  0  0
    4.1018    3.9696    0.9028 C   0  0  0  0  0  0  0  0  0  0  0  0
    4.7083    2.9210    0.1925 C   0  0  0  0  0  0  0  0  0  0  0  0
    6.0280    2.9862   -0.2841 N   0  0  0  0  0  0  0  0  0  0  0  0
    6.9899    3.7614    0.4966 C   0  0  0  0  0  0  0  0  0  0  0  0
    8.3688    3.7179   -0.1240 C   0  0  0  0  0  0  0  0  0  0  0  0
    8.5733    4.1749   -1.4482 C   0  0  0  0  0  0  0  0  0  0  0  0
    9.8598    4.2635   -1.9921 C   0  0  0  0  0  0  0  0  0  0  0  0
   10.9199    3.8983   -1.1921 C   0  0  0  0  0  0  0  0  0  0  0  0
   10.7328    3.4395    0.0897 C   0  0  0  0  0  0  0  0  0  0  0  0
    9.4767    3.3306    0.6494 C   0  0  0  0  0  0  0  0  0  0  0  0
   11.9062    3.1519    0.7148 O   0  0  0  0  0  0  0  0  0  0  0  0
   12.8548    3.5489   -0.2975 C   0  0  0  0  0  0  0  0  0  0  0  0
   12.2349    3.9592   -1.5340 O   0  0  0  0  0  0  0  0  0  0  0  0
    3.9049    1.8296   -0.1666 C   0  0  0  0  0  0  0  0  0  0  0  0
    0.9514    2.7643    1.3158 H   0  0  0  0  0  0  0  0  0  0  0  0
    2.3309    4.7367    1.8668 H   0  0  0  0  0  0  0  0  0  0  0  0
    4.6533    4.8724    1.1488 H   0  0  0  0  0  0  0  0  0  0  0  0
    6.3981    2.0695   -0.5277 H   0  0  0  0  0  0  0  0  0  0  0  0
    7.0298    3.3694    1.5204 H   0  0  0  0  0  0  0  0  0  0  0  0
    6.7049    4.8182    0.5480 H   0  0  0  0  0  0  0  0  0  0  0  0
    7.7189    4.4864   -2.0482 H   0  0  0  0  0  0  0  0  0  0  0  0
   10.0204    4.6302   -2.9996 H   0  0  0  0  0  0  0  0  0  0  0  0
    9.3673    2.9861    1.6724 H   0  0  0  0  0  0  0  0  0  0  0  0
   13.5268    2.7079   -0.5014 H   0  0  0  0  0  0  0  0  0  0  0  0
   13.4481    4.3858    0.0909 H   0  0  0  0  0  0  0  0  0  0  0  0
    4.3308    1.0270   -0.7650 H   0  0  0  0  0  0  0  0  0  0  0  0
  1  2  2  0  0  0  0
  2  3  1  0  0  0  0
  2  4  1  0  0  0  0
  4  5  1  0  0  0  0
  4 20  2  0  0  0  0
  5  6  2  0  0  0  0
  5 21  1  0  0  0  0
  6  7  1  0  0  0  0
  6 22  1  0  0  0  0
  7  8  2  0  0  0  0
  7 23  1  0  0  0  0
  8  9  1  0  0  0  0
  8 20  1  0  0  0  0
  9 10  1  0  0  0  0
  9 24  1  0  0  0  0
 10 11  1  0  0  0  0
 10 25  1  0  0  0  0
 10 26  1  0  0  0  0
 11 12  1  0  0  0  0
 11 16  2  0  0  0  0
 12 13  2  0  0  0  0
 12 27  1  0  0  0  0
 13 14  1  0  0  0  0
 13 28  1  0  0  0  0
 14 15  2  0  0  0  0
 14 19  1  0  0  0  0
 15 16  1  0  0  0  0
 15 17  1  0  0  0  0
 16 29  1  0  0  0  0
 17 18  1  0  0  0  0
 18 19  1  0  0  0  0
 18 30  1  0  0  0  0
 18 31  1  0  0  0  0
 20 32  1  0  0  0  0
M  CHG  2   2   1   3  -1
M  END
>  <Line_Number>
224


> <IC50>
36700

$$$$
