5029.0
 OpenBabel09302502333D

 46 48  0  0  0  0  0  0  0  0999 V2000
   10.0375    0.4821   -1.2816 C   0  0  0  0  0  0  0  0  0  0  0  0
    8.9773   -0.2132   -0.6405 O   0  0  0  0  0  0  0  0  0  0  0  0
    7.7692    0.5482   -0.5888 C   0  0  0  0  0  0  0  0  0  0  0  0
    6.7237   -0.2318    0.2159 C   0  0  0  0  0  0  0  0  0  0  0  0
    7.2406   -0.4872    1.6305 C   0  0  0  0  0  0  0  0  0  0  0  0
    6.3571   -1.3164    2.4068 O   0  0  0  0  0  0  0  0  0  0  0  0
    6.9897   -1.9453    3.4681 C   0  0  0  0  0  0  0  0  0  0  0  0
    8.1631   -1.4459    4.0374 C   0  0  0  0  0  0  0  0  0  0  0  0
    8.8193   -2.2096    4.9750 C   0  0  0  0  0  0  0  0  0  0  0  0
    8.3934   -3.4196    5.3735 N   0  0  0  0  0  0  0  0  0  0  0  0
    7.2230   -3.8900    4.8586 C   0  0  0  0  0  0  0  0  0  0  0  0
    6.9006   -5.3051    5.2684 C   0  0  0  0  0  0  0  0  0  0  0  0
    6.1279   -5.4136    6.8976 S   0  0  3  0  0  0  0  0  0  0  0  0
    4.7061   -4.9286    6.8908 O   0  0  0  0  0  0  0  0  0  0  0  0
    6.0243   -7.1462    6.9768 C   0  0  0  0  0  0  0  0  0  0  0  0
    6.9907   -7.9679    6.6205 N   0  0  0  0  0  0  0  0  0  0  0  0
    6.4587   -9.2273    6.7608 C   0  0  0  0  0  0  0  0  0  0  0  0
    7.0277  -10.4745    6.4626 C   0  0  0  0  0  0  0  0  0  0  0  0
    6.2731  -11.6311    6.6925 C   0  0  0  0  0  0  0  0  0  0  0  0
    4.9859  -11.5476    7.2279 C   0  0  0  0  0  0  0  0  0  0  0  0
    4.4008  -10.3113    7.5352 C   0  0  0  0  0  0  0  0  0  0  0  0
    5.1657   -9.1718    7.2720 C   0  0  0  0  0  0  0  0  0  0  0  0
    4.9147   -7.8283    7.4021 N   0  0  0  0  0  0  0  0  0  0  0  0
    6.4446   -3.1523    3.9487 C   0  0  0  0  0  0  0  0  0  0  0  0
    5.1048   -3.6197    3.4645 C   0  0  0  0  0  0  0  0  0  0  0  0
   10.9259   -0.1563   -1.2620 H   0  0  0  0  0  0  0  0  0  0  0  0
   10.2685    1.4098   -0.7493 H   0  0  0  0  0  0  0  0  0  0  0  0
    9.7823    0.6942   -2.3234 H   0  0  0  0  0  0  0  0  0  0  0  0
    7.4102    0.7249   -1.6081 H   0  0  0  0  0  0  0  0  0  0  0  0
    7.9662    1.5154   -0.1104 H   0  0  0  0  0  0  0  0  0  0  0  0
    6.5156   -1.1919   -0.2703 H   0  0  0  0  0  0  0  0  0  0  0  0
    5.7787    0.3218    0.2493 H   0  0  0  0  0  0  0  0  0  0  0  0
    7.3506    0.4768    2.1421 H   0  0  0  0  0  0  0  0  0  0  0  0
    8.2193   -0.9733    1.5428 H   0  0  0  0  0  0  0  0  0  0  0  0
    8.5913   -0.4915    3.7588 H   0  0  0  0  0  0  0  0  0  0  0  0
    9.7491   -1.8694    5.4189 H   0  0  0  0  0  0  0  0  0  0  0  0
    7.8525   -5.8494    5.3236 H   0  0  0  0  0  0  0  0  0  0  0  0
    6.2932   -5.8241    4.5217 H   0  0  0  0  0  0  0  0  0  0  0  0
    8.0288  -10.5317    6.0483 H   0  0  0  0  0  0  0  0  0  0  0  0
    6.6968  -12.6033    6.4503 H   0  0  0  0  0  0  0  0  0  0  0  0
    4.4226  -12.4630    7.4039 H   0  0  0  0  0  0  0  0  0  0  0  0
    3.3992  -10.2523    7.9474 H   0  0  0  0  0  0  0  0  0  0  0  0
    4.0618   -7.3929    7.7269 H   0  0  0  0  0  0  0  0  0  0  0  0
    4.6838   -4.4037    4.1007 H   0  0  0  0  0  0  0  0  0  0  0  0
    5.1741   -4.0020    2.4429 H   0  0  0  0  0  0  0  0  0  0  0  0
    4.3831   -2.7956    3.4973 H   0  0  0  0  0  0  0  0  0  0  0  0
  1  2  1  0  0  0  0
  1 26  1  0  0  0  0
  1 27  1  0  0  0  0
  1 28  1  0  0  0  0
  2  3  1  0  0  0  0
  3  4  1  0  0  0  0
  3 29  1  0  0  0  0
  3 30  1  0  0  0  0
  4  5  1  0  0  0  0
  4 31  1  0  0  0  0
  4 32  1  0  0  0  0
  5  6  1  0  0  0  0
  5 33  1  0  0  0  0
  5 34  1  0  0  0  0
  6  7  1  0  0  0  0
  7  8  1  0  0  0  0
  7 24  2  0  0  0  0
  8  9  2  0  0  0  0
  8 35  1  0  0  0  0
  9 10  1  0  0  0  0
  9 36  1  0  0  0  0
 10 11  2  0  0  0  0
 11 12  1  0  0  0  0
 11 24  1  0  0  0  0
 12 13  1  0  0  0  0
 12 37  1  0  0  0  0
 12 38  1  0  0  0  0
 13 14  2  0  0  0  0
 13 15  1  0  0  0  0
 15 16  2  0  0  0  0
 15 23  1  0  0  0  0
 16 17  1  0  0  0  0
 17 18  1  0  0  0  0
 17 22  2  0  0  0  0
 18 19  2  0  0  0  0
 18 39  1  0  0  0  0
 19 20  1  0  0  0  0
 19 40  1  0  0  0  0
 20 21  2  0  0  0  0
 20 41  1  0  0  0  0
 21 22  1  0  0  0  0
 21 42  1  0  0  0  0
 22 23  1  0  0  0  0
 23 43  1  0  0  0  0
 24 25  1  0  0  0  0
 25 44  1  0  0  0  0
 25 45  1  0  0  0  0
 25 46  1  0  0  0  0
M  END
>  <Line_Number>
225


> <IC50>
290

$$$$
