145982554.0
 OpenBabel09302502333D

 24 24  0  0  0  0  0  0  0  0999 V2000
    1.0142   -0.0064    0.1989 O   0  0  0  0  0  0  0  0  0  0  0  0
    2.2369   -0.0335    0.0881 C   0  0  0  0  0  0  0  0  0  0  0  0
    2.9752   -0.0032   -1.2285 C   0  0  0  0  0  0  0  0  0  0  0  0
    1.9938    0.0811   -2.3869 C   0  0  0  0  0  0  0  0  0  0  0  0
    2.7220    0.1134   -3.6184 O   0  0  0  0  0  0  0  0  0  0  0  0
    1.9679    0.2307   -4.7568 C   0  0  0  0  0  0  0  0  0  0  0  0
    0.5711    0.2685   -4.8070 C   0  0  0  0  0  0  0  0  0  0  0  0
   -0.0906    0.4003   -6.0304 C   0  0  0  0  0  0  0  0  0  0  0  0
    0.6432    0.4917   -7.2107 C   0  0  0  0  0  0  0  0  0  0  0  0
   -0.2578    0.6772   -8.8610 Br  0  0  0  0  0  0  0  0  0  0  0  0
    2.0346    0.4490   -7.1767 C   0  0  0  0  0  0  0  0  0  0  0  0
    2.6932    0.3175   -5.9497 C   0  0  0  0  0  0  0  0  0  0  0  0
    3.0627   -0.0932    1.1816 N   0  0  0  0  0  0  0  0  0  0  0  0
    2.4389   -0.1448    2.4461 O   0  0  0  0  0  0  0  0  0  0  0  0
    3.5909   -0.9048   -1.3196 H   0  0  0  0  0  0  0  0  0  0  0  0
    3.6524    0.8585   -1.2444 H   0  0  0  0  0  0  0  0  0  0  0  0
    1.3949    0.9949   -2.2851 H   0  0  0  0  0  0  0  0  0  0  0  0
    1.3369   -0.7976   -2.3690 H   0  0  0  0  0  0  0  0  0  0  0  0
   -0.0385    0.1987   -3.9113 H   0  0  0  0  0  0  0  0  0  0  0  0
   -1.1774    0.4300   -6.0487 H   0  0  0  0  0  0  0  0  0  0  0  0
    2.6136    0.5182   -8.0932 H   0  0  0  0  0  0  0  0  0  0  0  0
    3.7798    0.2855   -5.9256 H   0  0  0  0  0  0  0  0  0  0  0  0
    4.0733   -0.1704    1.1556 H   0  0  0  0  0  0  0  0  0  0  0  0
    1.4849   -0.1099    2.2137 H   0  0  0  0  0  0  0  0  0  0  0  0
  1  2  2  0  0  0  0
  2  3  1  0  0  0  0
  2 13  1  0  0  0  0
  3  4  1  0  0  0  0
  3 15  1  0  0  0  0
  3 16  1  0  0  0  0
  4  5  1  0  0  0  0
  4 17  1  0  0  0  0
  4 18  1  0  0  0  0
  5  6  1  0  0  0  0
  6  7  1  0  0  0  0
  6 12  2  0  0  0  0
  7  8  2  0  0  0  0
  7 19  1  0  0  0  0
  8  9  1  0  0  0  0
  8 20  1  0  0  0  0
  9 10  1  0  0  0  0
  9 11  2  0  0  0  0
 11 12  1  0  0  0  0
 11 21  1  0  0  0  0
 12 22  1  0  0  0  0
 13 14  1  0  0  0  0
 13 23  1  0  0  0  0
 14 24  1  0  0  0  0
M  END
>  <Line_Number>
226


> <IC50>
860

$$$$
