145982844.0
 OpenBabel09302502333D

 27 27  0  0  0  0  0  0  0  0999 V2000
    2.5286    0.3684   -0.0163 C   0  0  0  0  0  0  0  0  0  0  0  0
    1.0488    0.0856   -0.0096 C   0  0  0  0  0  0  0  0  0  0  0  0
    0.2182    1.2318   -0.0023 C   0  0  0  0  0  0  0  0  0  0  0  0
   -1.1695    1.1344    0.0039 C   0  0  0  0  0  0  0  0  0  0  0  0
   -1.7682   -0.1160    0.0032 C   0  0  0  0  0  0  0  0  0  0  0  0
   -0.9691   -1.2608   -0.0002 C   0  0  0  0  0  0  0  0  0  0  0  0
    0.4365   -1.1860   -0.0066 C   0  0  0  0  0  0  0  0  0  0  0  0
    1.0012   -2.4411   -0.0112 O   0  0  0  0  0  0  0  0  0  0  0  0
    2.4153   -2.5398   -0.0104 C   0  0  0  0  0  0  0  0  0  0  0  0
    2.8808   -3.9888   -0.0169 C   0  0  0  0  0  0  0  0  0  0  0  0
    4.3931   -3.9952   -0.0282 C   0  0  0  0  0  0  0  0  0  0  0  0
    5.0888   -2.9801   -0.0033 O   0  0  0  0  0  0  0  0  0  0  0  0
    4.9631   -5.2389   -0.0732 N   0  0  0  0  0  0  0  0  0  0  0  0
    6.3763   -5.2683   -0.0376 O   0  0  0  0  0  0  0  0  0  0  0  0
    2.7342    1.4454   -0.0100 H   0  0  0  0  0  0  0  0  0  0  0  0
    2.9966   -0.0158   -0.9253 H   0  0  0  0  0  0  0  0  0  0  0  0
    3.0112   -0.0275    0.8796 H   0  0  0  0  0  0  0  0  0  0  0  0
    0.6636    2.2255   -0.0023 H   0  0  0  0  0  0  0  0  0  0  0  0
   -1.7772    2.0350    0.0069 H   0  0  0  0  0  0  0  0  0  0  0  0
   -2.8496   -0.2024    0.0070 H   0  0  0  0  0  0  0  0  0  0  0  0
   -1.4530   -2.2357   -0.0006 H   0  0  0  0  0  0  0  0  0  0  0  0
    2.8083   -2.0741    0.8974 H   0  0  0  0  0  0  0  0  0  0  0  0
    2.8084   -2.0672   -0.9140 H   0  0  0  0  0  0  0  0  0  0  0  0
    2.4993   -4.5131   -0.8997 H   0  0  0  0  0  0  0  0  0  0  0  0
    2.5138   -4.5163    0.8703 H   0  0  0  0  0  0  0  0  0  0  0  0
    4.4731   -6.1220    0.0085 H   0  0  0  0  0  0  0  0  0  0  0  0
    6.6051   -4.3106   -0.0057 H   0  0  0  0  0  0  0  0  0  0  0  0
  1  2  1  0  0  0  0
  1 15  1  0  0  0  0
  1 16  1  0  0  0  0
  1 17  1  0  0  0  0
  2  3  1  0  0  0  0
  2  7  2  0  0  0  0
  3  4  2  0  0  0  0
  3 18  1  0  0  0  0
  4  5  1  0  0  0  0
  4 19  1  0  0  0  0
  5  6  2  0  0  0  0
  5 20  1  0  0  0  0
  6  7  1  0  0  0  0
  6 21  1  0  0  0  0
  7  8  1  0  0  0  0
  8  9  1  0  0  0  0
  9 10  1  0  0  0  0
  9 22  1  0  0  0  0
  9 23  1  0  0  0  0
 10 11  1  0  0  0  0
 10 24  1  0  0  0  0
 10 25  1  0  0  0  0
 11 12  2  0  0  0  0
 11 13  1  0  0  0  0
 13 14  1  0  0  0  0
 13 26  1  0  0  0  0
 14 27  1  0  0  0  0
M  END
>  <Line_Number>
227


> <IC50>
6740

$$$$
