145982793.0
 OpenBabel09302502333D

 24 24  0  0  0  0  0  0  0  0999 V2000
    1.0639    0.0534   -0.1319 O   0  0  0  0  0  0  0  0  0  0  0  0
    2.2885   -0.0537   -0.0935 C   0  0  0  0  0  0  0  0  0  0  0  0
    3.0290   -1.3684   -0.1266 C   0  0  0  0  0  0  0  0  0  0  0  0
    2.0486   -2.5285   -0.2009 C   0  0  0  0  0  0  0  0  0  0  0  0
    2.7771   -3.7605   -0.2305 O   0  0  0  0  0  0  0  0  0  0  0  0
    2.0249   -4.9003   -0.3519 C   0  0  0  0  0  0  0  0  0  0  0  0
    0.6301   -4.9516   -0.3850 C   0  0  0  0  0  0  0  0  0  0  0  0
   -0.0291   -6.1765   -0.5260 C   0  0  0  0  0  0  0  0  0  0  0  0
    0.7003   -7.3617   -0.6300 C   0  0  0  0  0  0  0  0  0  0  0  0
   -0.1838   -8.8341   -0.8140 Cl  0  0  0  0  0  0  0  0  0  0  0  0
    2.0969   -7.3192   -0.5857 C   0  0  0  0  0  0  0  0  0  0  0  0
    3.0668   -8.7451   -0.7000 Cl  0  0  0  0  0  0  0  0  0  0  0  0
    2.7537   -6.0905   -0.4460 C   0  0  0  0  0  0  0  0  0  0  0  0
    3.1104    1.0403   -0.0110 N   0  0  0  0  0  0  0  0  0  0  0  0
    2.4856    2.3052    0.0104 O   0  0  0  0  0  0  0  0  0  0  0  0
    3.6534   -1.4580    0.7699 H   0  0  0  0  0  0  0  0  0  0  0  0
    3.6987   -1.3846   -0.9941 H   0  0  0  0  0  0  0  0  0  0  0  0
    1.4452   -2.4313   -1.1123 H   0  0  0  0  0  0  0  0  0  0  0  0
    1.3957   -2.5077    0.6806 H   0  0  0  0  0  0  0  0  0  0  0  0
    0.0185   -4.0578   -0.3062 H   0  0  0  0  0  0  0  0  0  0  0  0
   -1.1160   -6.1945   -0.5553 H   0  0  0  0  0  0  0  0  0  0  0  0
    3.8400   -6.0560   -0.4130 H   0  0  0  0  0  0  0  0  0  0  0  0
    4.1242    1.0203   -0.0071 H   0  0  0  0  0  0  0  0  0  0  0  0
    1.5322    2.0723   -0.0367 H   0  0  0  0  0  0  0  0  0  0  0  0
  1  2  2  0  0  0  0
  2  3  1  0  0  0  0
  2 14  1  0  0  0  0
  3  4  1  0  0  0  0
  3 16  1  0  0  0  0
  3 17  1  0  0  0  0
  4  5  1  0  0  0  0
  4 18  1  0  0  0  0
  4 19  1  0  0  0  0
  5  6  1  0  0  0  0
  6  7  1  0  0  0  0
  6 13  2  0  0  0  0
  7  8  2  0  0  0  0
  7 20  1  0  0  0  0
  8  9  1  0  0  0  0
  8 21  1  0  0  0  0
  9 10  1  0  0  0  0
  9 11  2  0  0  0  0
 11 12  1  0  0  0  0
 11 13  1  0  0  0  0
 13 22  1  0  0  0  0
 14 15  1  0  0  0  0
 14 23  1  0  0  0  0
 15 24  1  0  0  0  0
M  END
>  <Line_Number>
228


> <IC50>
475

$$$$
