145983251.0
 OpenBabel09302502333D

 27 27  0  0  0  0  0  0  0  0999 V2000
    2.4631   -0.0488   -0.0091 C   0  0  0  0  0  0  0  0  0  0  0  0
    0.9645    0.0065   -0.0051 C   0  0  0  0  0  0  0  0  0  0  0  0
    0.2944    1.2330   -0.0024 C   0  0  0  0  0  0  0  0  0  0  0  0
   -1.1033    1.2807   -0.0040 C   0  0  0  0  0  0  0  0  0  0  0  0
   -1.8517    0.1024   -0.0093 C   0  0  0  0  0  0  0  0  0  0  0  0
   -3.2211    0.0235   -0.0138 O   0  0  0  0  0  0  0  0  0  0  0  0
   -3.9152    1.2729   -0.0199 C   0  0  0  0  0  0  0  0  0  0  0  0
   -5.4133    1.0121   -0.0321 C   0  0  0  0  0  0  0  0  0  0  0  0
   -6.1672    2.3184   -0.0335 C   0  0  0  0  0  0  0  0  0  0  0  0
   -5.6336    3.4266   -0.0311 O   0  0  0  0  0  0  0  0  0  0  0  0
   -7.5298    2.1777   -0.0379 N   0  0  0  0  0  0  0  0  0  0  0  0
   -8.2853    3.3703   -0.0471 O   0  0  0  0  0  0  0  0  0  0  0  0
   -1.1843   -1.1239   -0.0105 C   0  0  0  0  0  0  0  0  0  0  0  0
    0.2136   -1.1739   -0.0086 C   0  0  0  0  0  0  0  0  0  0  0  0
    2.9009    0.9549    0.0095 H   0  0  0  0  0  0  0  0  0  0  0  0
    2.8196   -0.5530   -0.9129 H   0  0  0  0  0  0  0  0  0  0  0  0
    2.8242   -0.5872    0.8729 H   0  0  0  0  0  0  0  0  0  0  0  0
    0.8530    2.1663    0.0005 H   0  0  0  0  0  0  0  0  0  0  0  0
   -1.5708    2.2599   -0.0013 H   0  0  0  0  0  0  0  0  0  0  0  0
   -3.6422    1.8454   -0.9155 H   0  0  0  0  0  0  0  0  0  0  0  0
   -3.6564    1.8453    0.8799 H   0  0  0  0  0  0  0  0  0  0  0  0
   -5.7028    0.4249    0.8468 H   0  0  0  0  0  0  0  0  0  0  0  0
   -5.6891    0.4306   -0.9196 H   0  0  0  0  0  0  0  0  0  0  0  0
   -8.0375    1.2994   -0.0603 H   0  0  0  0  0  0  0  0  0  0  0  0
   -7.5862    4.0612   -0.0443 H   0  0  0  0  0  0  0  0  0  0  0  0
   -1.7542   -2.0495   -0.0136 H   0  0  0  0  0  0  0  0  0  0  0  0
    0.7119   -2.1407   -0.0108 H   0  0  0  0  0  0  0  0  0  0  0  0
  1  2  1  0  0  0  0
  1 15  1  0  0  0  0
  1 16  1  0  0  0  0
  1 17  1  0  0  0  0
  2  3  1  0  0  0  0
  2 14  2  0  0  0  0
  3  4  2  0  0  0  0
  3 18  1  0  0  0  0
  4  5  1  0  0  0  0
  4 19  1  0  0  0  0
  5  6  1  0  0  0  0
  5 13  2  0  0  0  0
  6  7  1  0  0  0  0
  7  8  1  0  0  0  0
  7 20  1  0  0  0  0
  7 21  1  0  0  0  0
  8  9  1  0  0  0  0
  8 22  1  0  0  0  0
  8 23  1  0  0  0  0
  9 10  2  0  0  0  0
  9 11  1  0  0  0  0
 11 12  1  0  0  0  0
 11 24  1  0  0  0  0
 12 25  1  0  0  0  0
 13 14  1  0  0  0  0
 13 26  1  0  0  0  0
 14 27  1  0  0  0  0
M  END
>  <Line_Number>
229


> <IC50>
1380

$$$$
