19423878.0
 OpenBabel09302502333D

 37 38  0  0  0  0  0  0  0  0999 V2000
    0.8999    0.4410    0.1672 C   0  0  0  0  0  0  0  0  0  0  0  0
    2.2544    0.0124    0.0723 O   0  0  0  0  0  0  0  0  0  0  0  0
    2.9076    0.3085   -1.0953 C   0  0  0  0  0  0  0  0  0  0  0  0
    2.5437    1.3888   -1.9071 C   0  0  0  0  0  0  0  0  0  0  0  0
    3.2597    1.6924   -3.0703 C   0  0  0  0  0  0  0  0  0  0  0  0
    4.3824    0.9481   -3.4371 C   0  0  0  0  0  0  0  0  0  0  0  0
    5.1530    1.2156   -4.7146 C   0  0  0  0  0  0  0  0  0  0  0  0
    5.1606    2.6838   -5.1730 C   0  0  0  0  0  0  0  0  0  0  0  0
    5.9839    2.9437   -6.4138 C   0  0  0  0  0  0  0  0  0  0  0  0
    7.0985    3.7937   -6.3431 C   0  0  0  0  0  0  0  0  0  0  0  0
    7.8485    4.0831   -7.4852 C   0  0  0  0  0  0  0  0  0  0  0  0
    7.4968    3.5228   -8.7110 C   0  0  0  0  0  0  0  0  0  0  0  0
    6.3876    2.6831   -8.8009 C   0  0  0  0  0  0  0  0  0  0  0  0
    5.6331    2.4096   -7.6599 C   0  0  0  0  0  0  0  0  0  0  0  0
    4.5139    1.6310   -7.7535 O   0  0  0  0  0  0  0  0  0  0  0  0
    4.7503   -0.1295   -2.6173 C   0  0  0  0  0  0  0  0  0  0  0  0
    4.0233   -0.4611   -1.4608 C   0  0  0  0  0  0  0  0  0  0  0  0
    4.5440   -1.5335   -0.7800 O   0  0  0  0  0  0  0  0  0  0  0  0
    3.6099   -2.3655   -0.1025 C   0  0  0  0  0  0  0  0  0  0  0  0
    0.4673   -0.0112    1.0646 H   0  0  0  0  0  0  0  0  0  0  0  0
    0.3147    0.1009   -0.6945 H   0  0  0  0  0  0  0  0  0  0  0  0
    0.8351    1.5273    0.2852 H   0  0  0  0  0  0  0  0  0  0  0  0
    1.7098    2.0358   -1.6552 H   0  0  0  0  0  0  0  0  0  0  0  0
    2.9151    2.5289   -3.6716 H   0  0  0  0  0  0  0  0  0  0  0  0
    4.7236    0.5699   -5.4893 H   0  0  0  0  0  0  0  0  0  0  0  0
    6.1930    0.8907   -4.5772 H   0  0  0  0  0  0  0  0  0  0  0  0
    5.5321    3.3074   -4.3488 H   0  0  0  0  0  0  0  0  0  0  0  0
    4.1442    3.0377   -5.3818 H   0  0  0  0  0  0  0  0  0  0  0  0
    7.3834    4.2493   -5.3969 H   0  0  0  0  0  0  0  0  0  0  0  0
    8.7031    4.7515   -7.4169 H   0  0  0  0  0  0  0  0  0  0  0  0
    8.0851    3.7455   -9.5973 H   0  0  0  0  0  0  0  0  0  0  0  0
    6.1231    2.2614   -9.7650 H   0  0  0  0  0  0  0  0  0  0  0  0
    4.3886    1.3795   -8.6850 H   0  0  0  0  0  0  0  0  0  0  0  0
    5.6114   -0.7412   -2.8823 H   0  0  0  0  0  0  0  0  0  0  0  0
    4.0896   -3.3364    0.0587 H   0  0  0  0  0  0  0  0  0  0  0  0
    2.7058   -2.5410   -0.6959 H   0  0  0  0  0  0  0  0  0  0  0  0
    3.3710   -1.9598    0.8845 H   0  0  0  0  0  0  0  0  0  0  0  0
  1  2  1  0  0  0  0
  1 20  1  0  0  0  0
  1 21  1  0  0  0  0
  1 22  1  0  0  0  0
  2  3  1  0  0  0  0
  3  4  1  0  0  0  0
  3 17  2  0  0  0  0
  4  5  2  0  0  0  0
  4 23  1  0  0  0  0
  5  6  1  0  0  0  0
  5 24  1  0  0  0  0
  6  7  1  0  0  0  0
  6 16  2  0  0  0  0
  7  8  1  0  0  0  0
  7 25  1  0  0  0  0
  7 26  1  0  0  0  0
  8  9  1  0  0  0  0
  8 27  1  0  0  0  0
  8 28  1  0  0  0  0
  9 10  1  0  0  0  0
  9 14  2  0  0  0  0
 10 11  2  0  0  0  0
 10 29  1  0  0  0  0
 11 12  1  0  0  0  0
 11 30  1  0  0  0  0
 12 13  2  0  0  0  0
 12 31  1  0  0  0  0
 13 14  1  0  0  0  0
 13 32  1  0  0  0  0
 14 15  1  0  0  0  0
 15 33  1  0  0  0  0
 16 17  1  0  0  0  0
 16 34  1  0  0  0  0
 17 18  1  0  0  0  0
 18 19  1  0  0  0  0
 19 35  1  0  0  0  0
 19 36  1  0  0  0  0
 19 37  1  0  0  0  0
M  END
>  <Line_Number>
22


> <IC50>
227000

$$$$
