145983865.0
 OpenBabel09302502333D

 23 23  0  0  0  0  0  0  0  0999 V2000
    2.4626   -0.9759    0.9981 O   0  0  0  0  0  0  0  0  0  0  0  0
    2.1700   -0.2804    0.0243 C   0  0  0  0  0  0  0  0  0  0  0  0
    2.8820   -0.4026   -1.3195 C   0  0  0  0  0  0  0  0  0  0  0  0
    2.0464    0.0563   -2.3761 O   0  0  0  0  0  0  0  0  0  0  0  0
    2.5368    0.0284   -3.6523 C   0  0  0  0  0  0  0  0  0  0  0  0
    3.5393   -0.8640   -4.0570 C   0  0  0  0  0  0  0  0  0  0  0  0
    3.9387   -0.9409   -5.3956 C   0  0  0  0  0  0  0  0  0  0  0  0
    3.3428   -0.1304   -6.3557 C   0  0  0  0  0  0  0  0  0  0  0  0
    2.3578    0.7794   -5.9756 C   0  0  0  0  0  0  0  0  0  0  0  0
    1.9586    0.8677   -4.6237 C   0  0  0  0  0  0  0  0  0  0  0  0
    0.9469    1.8827   -4.2778 N   0  3  0  0  0  0  0  0  0  0  0  0
    0.7119    2.1128   -3.0799 O   0  0  0  0  0  0  0  0  0  0  0  0
    0.3939    2.4816   -5.2131 O   0  5  0  0  0  0  0  0  0  0  0  0
    1.2228    0.7082    0.0919 N   0  0  0  0  0  0  0  0  0  0  0  0
    0.5059    0.8158    1.3051 O   0  0  0  0  0  0  0  0  0  0  0  0
    3.1151   -1.4654   -1.4455 H   0  0  0  0  0  0  0  0  0  0  0  0
    3.7951    0.1986   -1.2679 H   0  0  0  0  0  0  0  0  0  0  0  0
    4.0188   -1.5458   -3.3605 H   0  0  0  0  0  0  0  0  0  0  0  0
    4.7091   -1.6514   -5.6901 H   0  0  0  0  0  0  0  0  0  0  0  0
    3.6439   -0.2066   -7.3981 H   0  0  0  0  0  0  0  0  0  0  0  0
    1.9105    1.4109   -6.7413 H   0  0  0  0  0  0  0  0  0  0  0  0
    0.8259    1.1520   -0.7369 H   0  0  0  0  0  0  0  0  0  0  0  0
    0.9788    0.1824    1.8885 H   0  0  0  0  0  0  0  0  0  0  0  0
  1  2  2  0  0  0  0
  2  3  1  0  0  0  0
  2 14  1  0  0  0  0
  3  4  1  0  0  0  0
  3 16  1  0  0  0  0
  3 17  1  0  0  0  0
  4  5  1  0  0  0  0
  5  6  1  0  0  0  0
  5 10  2  0  0  0  0
  6  7  2  0  0  0  0
  6 18  1  0  0  0  0
  7  8  1  0  0  0  0
  7 19  1  0  0  0  0
  8  9  2  0  0  0  0
  8 20  1  0  0  0  0
  9 10  1  0  0  0  0
  9 21  1  0  0  0  0
 10 11  1  0  0  0  0
 11 12  2  0  0  0  0
 11 13  1  0  0  0  0
 14 15  1  0  0  0  0
 14 22  1  0  0  0  0
 15 23  1  0  0  0  0
M  CHG  2  11   1  13  -1
M  END
>  <Line_Number>
230


> <IC50>
144300

$$$$
