145983154.0
 OpenBabel09302502333D

 24 24  0  0  0  0  0  0  0  0999 V2000
    1.1002    0.0468   -0.1642 O   0  0  0  0  0  0  0  0  0  0  0  0
    2.3246    0.0332   -0.0490 C   0  0  0  0  0  0  0  0  0  0  0  0
    3.0618   -0.5336    1.1399 C   0  0  0  0  0  0  0  0  0  0  0  0
    2.0823   -1.0848    2.1647 C   0  0  0  0  0  0  0  0  0  0  0  0
    2.8128   -1.6137    3.2761 O   0  0  0  0  0  0  0  0  0  0  0  0
    2.0617   -2.1955    4.2664 C   0  0  0  0  0  0  0  0  0  0  0  0
    0.6644   -2.2530    4.2973 C   0  0  0  0  0  0  0  0  0  0  0  0
    0.0094   -2.8843    5.3590 C   0  0  0  0  0  0  0  0  0  0  0  0
    0.7511   -3.4526    6.3856 C   0  0  0  0  0  0  0  0  0  0  0  0
    0.1188   -4.0602    7.3979 F   0  0  0  0  0  0  0  0  0  0  0  0
    2.1392   -3.3982    6.3752 C   0  0  0  0  0  0  0  0  0  0  0  0
    2.7937   -2.7669    5.3139 C   0  0  0  0  0  0  0  0  0  0  0  0
    3.1485    0.5447   -1.0178 N   0  0  0  0  0  0  0  0  0  0  0  0
    2.5269    1.0993   -2.1568 O   0  0  0  0  0  0  0  0  0  0  0  0
    3.6788    0.2519    1.5913 H   0  0  0  0  0  0  0  0  0  0  0  0
    3.7387   -1.3264    0.8008 H   0  0  0  0  0  0  0  0  0  0  0  0
    1.4849   -1.8794    1.7002 H   0  0  0  0  0  0  0  0  0  0  0  0
    1.4236   -0.2769    2.5070 H   0  0  0  0  0  0  0  0  0  0  0  0
    0.0518   -1.8186    3.5149 H   0  0  0  0  0  0  0  0  0  0  0  0
   -1.0747   -2.9341    5.3867 H   0  0  0  0  0  0  0  0  0  0  0  0
    2.7000   -3.8466    7.1884 H   0  0  0  0  0  0  0  0  0  0  0  0
    3.8803   -2.7237    5.3038 H   0  0  0  0  0  0  0  0  0  0  0  0
    4.1607    0.5840   -0.9729 H   0  0  0  0  0  0  0  0  0  0  0  0
    1.5725    0.9676   -1.9637 H   0  0  0  0  0  0  0  0  0  0  0  0
  1  2  2  0  0  0  0
  2  3  1  0  0  0  0
  2 13  1  0  0  0  0
  3  4  1  0  0  0  0
  3 15  1  0  0  0  0
  3 16  1  0  0  0  0
  4  5  1  0  0  0  0
  4 17  1  0  0  0  0
  4 18  1  0  0  0  0
  5  6  1  0  0  0  0
  6  7  1  0  0  0  0
  6 12  2  0  0  0  0
  7  8  2  0  0  0  0
  7 19  1  0  0  0  0
  8  9  1  0  0  0  0
  8 20  1  0  0  0  0
  9 10  1  0  0  0  0
  9 11  2  0  0  0  0
 11 12  1  0  0  0  0
 11 21  1  0  0  0  0
 12 22  1  0  0  0  0
 13 14  1  0  0  0  0
 13 23  1  0  0  0  0
 14 24  1  0  0  0  0
M  END
>  <Line_Number>
231


> <IC50>
1130

$$$$
