145983362.0
 OpenBabel09302502333D

 24 24  0  0  0  0  0  0  0  0999 V2000
    0.9649    0.0843   -0.0709 O   0  0  0  0  0  0  0  0  0  0  0  0
    2.1873    0.0462    0.0440 C   0  0  0  0  0  0  0  0  0  0  0  0
    2.9259   -0.8706    0.9901 C   0  0  0  0  0  0  0  0  0  0  0  0
    1.9389   -1.6894    1.8063 C   0  0  0  0  0  0  0  0  0  0  0  0
    2.6562   -2.5577    2.6886 O   0  0  0  0  0  0  0  0  0  0  0  0
    1.8855   -3.3733    3.4791 C   0  0  0  0  0  0  0  0  0  0  0  0
    0.4871   -3.3928    3.5032 C   0  0  0  0  0  0  0  0  0  0  0  0
   -0.1964   -4.2697    4.3494 C   0  0  0  0  0  0  0  0  0  0  0  0
    0.5138   -5.1336    5.1791 C   0  0  0  0  0  0  0  0  0  0  0  0
    1.9067   -5.1152    5.1584 C   0  0  0  0  0  0  0  0  0  0  0  0
    2.7832   -6.1844    6.1842 Cl  0  0  0  0  0  0  0  0  0  0  0  0
    2.5937   -4.2407    4.3149 C   0  0  0  0  0  0  0  0  0  0  0  0
    3.0093    0.8545   -0.6973 N   0  0  0  0  0  0  0  0  0  0  0  0
    2.3792    1.6985   -1.6378 O   0  0  0  0  0  0  0  0  0  0  0  0
    3.5628   -0.2739    1.6529 H   0  0  0  0  0  0  0  0  0  0  0  0
    3.5818   -1.5327    0.4136 H   0  0  0  0  0  0  0  0  0  0  0  0
    1.3167   -2.2852    1.1265 H   0  0  0  0  0  0  0  0  0  0  0  0
    1.3059   -1.0095    2.3903 H   0  0  0  0  0  0  0  0  0  0  0  0
   -0.1078   -2.7372    2.8749 H   0  0  0  0  0  0  0  0  0  0  0  0
   -1.2836   -4.2750    4.3575 H   0  0  0  0  0  0  0  0  0  0  0  0
   -0.0223   -5.8143    5.8349 H   0  0  0  0  0  0  0  0  0  0  0  0
    3.6801   -4.2337    4.3052 H   0  0  0  0  0  0  0  0  0  0  0  0
    4.0206    0.7902   -0.7344 H   0  0  0  0  0  0  0  0  0  0  0  0
    1.4279    1.4905   -1.5049 H   0  0  0  0  0  0  0  0  0  0  0  0
  1  2  2  0  0  0  0
  2  3  1  0  0  0  0
  2 13  1  0  0  0  0
  3  4  1  0  0  0  0
  3 15  1  0  0  0  0
  3 16  1  0  0  0  0
  4  5  1  0  0  0  0
  4 17  1  0  0  0  0
  4 18  1  0  0  0  0
  5  6  1  0  0  0  0
  6  7  1  0  0  0  0
  6 12  2  0  0  0  0
  7  8  2  0  0  0  0
  7 19  1  0  0  0  0
  8  9  1  0  0  0  0
  8 20  1  0  0  0  0
  9 10  2  0  0  0  0
  9 21  1  0  0  0  0
 10 11  1  0  0  0  0
 10 12  1  0  0  0  0
 12 22  1  0  0  0  0
 13 14  1  0  0  0  0
 13 23  1  0  0  0  0
 14 24  1  0  0  0  0
M  END
>  <Line_Number>
232


> <IC50>
1230

$$$$
