145984684.0
 OpenBabel09302502333D

 30 30  0  0  0  0  0  0  0  0999 V2000
    2.5203    1.0849    0.0081 C   0  0  0  0  0  0  0  0  0  0  0  0
    1.2243    0.3282   -0.0061 C   0  0  0  0  0  0  0  0  0  0  0  0
   -0.0031    0.9999   -0.0036 C   0  0  0  0  0  0  0  0  0  0  0  0
   -1.2067    0.2848    0.0000 C   0  0  0  0  0  0  0  0  0  0  0  0
   -2.5242    1.0028   -0.0023 C   0  0  0  0  0  0  0  0  0  0  0  0
   -1.1692   -1.1178   -0.0005 C   0  0  0  0  0  0  0  0  0  0  0  0
    0.0486   -1.8021   -0.0236 C   0  0  0  0  0  0  0  0  0  0  0  0
   -0.0366   -3.1723   -0.0120 O   0  0  0  0  0  0  0  0  0  0  0  0
    1.0529   -3.8532   -0.6434 C   0  0  0  0  0  0  0  0  0  0  0  0
    0.8052   -5.3544   -0.5819 C   0  0  0  0  0  0  0  0  0  0  0  0
    1.9346   -6.1002   -1.2525 C   0  0  0  0  0  0  0  0  0  0  0  0
    2.9041   -5.5575   -1.7759 O   0  0  0  0  0  0  0  0  0  0  0  0
    1.7968   -7.4628   -1.2334 N   0  0  0  0  0  0  0  0  0  0  0  0
    2.8324   -8.2070   -1.8409 O   0  0  0  0  0  0  0  0  0  0  0  0
    1.2406   -1.0745   -0.0133 C   0  0  0  0  0  0  0  0  0  0  0  0
    2.3561    2.1671   -0.0083 H   0  0  0  0  0  0  0  0  0  0  0  0
    3.1179    0.8230   -0.8711 H   0  0  0  0  0  0  0  0  0  0  0  0
    3.0871    0.8439    0.9133 H   0  0  0  0  0  0  0  0  0  0  0  0
   -0.0216    2.0881    0.0002 H   0  0  0  0  0  0  0  0  0  0  0  0
   -2.3894    2.0899    0.0141 H   0  0  0  0  0  0  0  0  0  0  0  0
   -3.1085    0.7257    0.8805 H   0  0  0  0  0  0  0  0  0  0  0  0
   -3.0894    0.7501   -0.9050 H   0  0  0  0  0  0  0  0  0  0  0  0
   -2.0972   -1.6849    0.0051 H   0  0  0  0  0  0  0  0  0  0  0  0
    1.9943   -3.6429   -0.1248 H   0  0  0  0  0  0  0  0  0  0  0  0
    1.1285   -3.5282   -1.6890 H   0  0  0  0  0  0  0  0  0  0  0  0
   -0.1424   -5.6084   -1.0707 H   0  0  0  0  0  0  0  0  0  0  0  0
    0.7313   -5.6785    0.4633 H   0  0  0  0  0  0  0  0  0  0  0  0
    1.0382   -7.9797   -0.8051 H   0  0  0  0  0  0  0  0  0  0  0  0
    3.4390   -7.5024   -2.1594 H   0  0  0  0  0  0  0  0  0  0  0  0
    2.2046   -1.5718    0.0090 H   0  0  0  0  0  0  0  0  0  0  0  0
  1  2  1  0  0  0  0
  1 16  1  0  0  0  0
  1 17  1  0  0  0  0
  1 18  1  0  0  0  0
  2  3  1  0  0  0  0
  2 15  2  0  0  0  0
  3  4  2  0  0  0  0
  3 19  1  0  0  0  0
  4  5  1  0  0  0  0
  4  6  1  0  0  0  0
  5 20  1  0  0  0  0
  5 21  1  0  0  0  0
  5 22  1  0  0  0  0
  6  7  2  0  0  0  0
  6 23  1  0  0  0  0
  7  8  1  0  0  0  0
  7 15  1  0  0  0  0
  8  9  1  0  0  0  0
  9 10  1  0  0  0  0
  9 24  1  0  0  0  0
  9 25  1  0  0  0  0
 10 11  1  0  0  0  0
 10 26  1  0  0  0  0
 10 27  1  0  0  0  0
 11 12  2  0  0  0  0
 11 13  1  0  0  0  0
 13 14  1  0  0  0  0
 13 28  1  0  0  0  0
 14 29  1  0  0  0  0
 15 30  1  0  0  0  0
M  END
>  <Line_Number>
233


> <IC50>
10400

$$$$
