145984854.0
 OpenBabel09302502333D

 21 21  0  0  0  0  0  0  0  0999 V2000
    2.1517    1.0562   -1.6816 O   0  0  0  0  0  0  0  0  0  0  0  0
    1.8304    0.9672   -0.4965 C   0  0  0  0  0  0  0  0  0  0  0  0
    2.5504    1.7275    0.6121 C   0  0  0  0  0  0  0  0  0  0  0  0
    2.0867    1.3557    1.9070 O   0  0  0  0  0  0  0  0  0  0  0  0
    2.6693    1.9916    2.9709 C   0  0  0  0  0  0  0  0  0  0  0  0
    3.7003    2.9295    2.8965 C   0  0  0  0  0  0  0  0  0  0  0  0
    4.2037    3.4998    4.0648 C   0  0  0  0  0  0  0  0  0  0  0  0
    5.1939    4.3975    3.9787 F   0  0  0  0  0  0  0  0  0  0  0  0
    3.7021    3.1575    5.3115 C   0  0  0  0  0  0  0  0  0  0  0  0
    2.6789    2.2240    5.3774 C   0  0  0  0  0  0  0  0  0  0  0  0
    2.1805    1.8781    6.5709 F   0  0  0  0  0  0  0  0  0  0  0  0
    2.1606    1.6402    4.2242 C   0  0  0  0  0  0  0  0  0  0  0  0
    0.7860    0.1808   -0.0835 N   0  0  0  0  0  0  0  0  0  0  0  0
    0.1844   -0.6345   -1.0669 O   0  0  0  0  0  0  0  0  0  0  0  0
    2.3707    2.7945    0.4362 H   0  0  0  0  0  0  0  0  0  0  0  0
    3.6149    1.4854    0.5152 H   0  0  0  0  0  0  0  0  0  0  0  0
    4.1435    3.2441    1.9594 H   0  0  0  0  0  0  0  0  0  0  0  0
    4.1013    3.6082    6.2120 H   0  0  0  0  0  0  0  0  0  0  0  0
    1.3590    0.9125    4.3142 H   0  0  0  0  0  0  0  0  0  0  0  0
    0.6643   -0.0849    0.8896 H   0  0  0  0  0  0  0  0  0  0  0  0
    0.6930   -0.4046   -1.8756 H   0  0  0  0  0  0  0  0  0  0  0  0
  1  2  2  0  0  0  0
  2  3  1  0  0  0  0
  2 13  1  0  0  0  0
  3  4  1  0  0  0  0
  3 15  1  0  0  0  0
  3 16  1  0  0  0  0
  4  5  1  0  0  0  0
  5  6  1  0  0  0  0
  5 12  2  0  0  0  0
  6  7  2  0  0  0  0
  6 17  1  0  0  0  0
  7  8  1  0  0  0  0
  7  9  1  0  0  0  0
  9 10  2  0  0  0  0
  9 18  1  0  0  0  0
 10 11  1  0  0  0  0
 10 12  1  0  0  0  0
 12 19  1  0  0  0  0
 13 14  1  0  0  0  0
 13 20  1  0  0  0  0
 14 21  1  0  0  0  0
M  END
>  <Line_Number>
234


> <IC50>
205400

$$$$
