49859552.0
 OpenBabel09302502333D

 28 28  0  0  0  0  0  0  0  0999 V2000
    1.3839    0.7208   -0.2587 C   0  0  0  0  0  0  0  0  0  0  0  0
    2.4796   -0.1595   -0.0333 O   0  0  0  0  0  0  0  0  0  0  0  0
    3.0916   -0.6649   -1.1467 C   0  0  0  0  0  0  0  0  0  0  0  0
    2.7138   -0.4126   -2.4645 C   0  0  0  0  0  0  0  0  0  0  0  0
    3.4170   -0.9912   -3.5261 C   0  0  0  0  0  0  0  0  0  0  0  0
    4.5075   -1.8287   -3.2838 C   0  0  0  0  0  0  0  0  0  0  0  0
    5.2641   -2.4477   -4.2448 O   0  0  0  0  0  0  0  0  0  0  0  0
    4.8715   -2.1979   -5.5969 C   0  0  0  0  0  0  0  0  0  0  0  0
    5.7994   -2.9527   -6.5334 C   0  0  0  0  0  0  0  0  0  0  0  0
    5.4107   -2.6926   -7.9674 C   0  0  0  0  0  0  0  0  0  0  0  0
    4.4662   -1.9875   -8.3142 O   0  0  0  0  0  0  0  0  0  0  0  0
    6.2192   -3.3171   -8.8839 N   0  0  0  0  0  0  0  0  0  0  0  0
    5.8755   -3.1453  -10.2416 O   0  0  0  0  0  0  0  0  0  0  0  0
    4.8868   -2.0799   -1.9652 C   0  0  0  0  0  0  0  0  0  0  0  0
    4.1829   -1.5024   -0.9036 C   0  0  0  0  0  0  0  0  0  0  0  0
    1.0021    1.0433    0.7142 H   0  0  0  0  0  0  0  0  0  0  0  0
    0.5683    0.2107   -0.7829 H   0  0  0  0  0  0  0  0  0  0  0  0
    1.7040    1.6154   -0.8043 H   0  0  0  0  0  0  0  0  0  0  0  0
    1.8739    0.2283   -2.7079 H   0  0  0  0  0  0  0  0  0  0  0  0
    3.0795   -0.7606   -4.5308 H   0  0  0  0  0  0  0  0  0  0  0  0
    4.9393   -1.1238   -5.8108 H   0  0  0  0  0  0  0  0  0  0  0  0
    3.8413   -2.5433   -5.7545 H   0  0  0  0  0  0  0  0  0  0  0  0
    5.7482   -4.0285   -6.3306 H   0  0  0  0  0  0  0  0  0  0  0  0
    6.8365   -2.6378   -6.3726 H   0  0  0  0  0  0  0  0  0  0  0  0
    6.9395   -3.9966   -8.6659 H   0  0  0  0  0  0  0  0  0  0  0  0
    5.0914   -2.5537  -10.1873 H   0  0  0  0  0  0  0  0  0  0  0  0
    5.7348   -2.7286   -1.7581 H   0  0  0  0  0  0  0  0  0  0  0  0
    4.4883   -1.7069    0.1202 H   0  0  0  0  0  0  0  0  0  0  0  0
  1  2  1  0  0  0  0
  1 16  1  0  0  0  0
  1 17  1  0  0  0  0
  1 18  1  0  0  0  0
  2  3  1  0  0  0  0
  3  4  1  0  0  0  0
  3 15  2  0  0  0  0
  4  5  2  0  0  0  0
  4 19  1  0  0  0  0
  5  6  1  0  0  0  0
  5 20  1  0  0  0  0
  6  7  1  0  0  0  0
  6 14  2  0  0  0  0
  7  8  1  0  0  0  0
  8  9  1  0  0  0  0
  8 21  1  0  0  0  0
  8 22  1  0  0  0  0
  9 10  1  0  0  0  0
  9 23  1  0  0  0  0
  9 24  1  0  0  0  0
 10 11  2  0  0  0  0
 10 12  1  0  0  0  0
 12 13  1  0  0  0  0
 12 25  1  0  0  0  0
 13 26  1  0  0  0  0
 14 15  1  0  0  0  0
 14 27  1  0  0  0  0
 15 28  1  0  0  0  0
M  END
>  <Line_Number>
235


> <IC50>
8350

$$$$
