145985446.0
 OpenBabel09302502333D

 24 24  0  0  0  0  0  0  0  0999 V2000
    0.9919   -0.2168   -0.0147 O   0  0  0  0  0  0  0  0  0  0  0  0
    2.2134   -0.0894   -0.0206 C   0  0  0  0  0  0  0  0  0  0  0  0
    2.9411    1.1502    0.4369 C   0  0  0  0  0  0  0  0  0  0  0  0
    1.9512    2.2007    0.9190 C   0  0  0  0  0  0  0  0  0  0  0  0
    2.6780    3.3567    1.3464 O   0  0  0  0  0  0  0  0  0  0  0  0
    1.9235    4.4165    1.7882 C   0  0  0  0  0  0  0  0  0  0  0  0
    0.6539    4.2784    2.3611 C   0  0  0  0  0  0  0  0  0  0  0  0
   -0.0380    5.4006    2.8199 C   0  0  0  0  0  0  0  0  0  0  0  0
   -1.5919    5.2065    3.5338 Cl  0  0  0  0  0  0  0  0  0  0  0  0
    0.5204    6.6718    2.7186 C   0  0  0  0  0  0  0  0  0  0  0  0
    1.7869    6.8232    2.1574 C   0  0  0  0  0  0  0  0  0  0  0  0
    2.4904    5.6999    1.7021 C   0  0  0  0  0  0  0  0  0  0  0  0
    4.0576    5.9482    1.0164 Cl  0  0  0  0  0  0  0  0  0  0  0  0
    3.0429   -1.0909   -0.4549 N   0  0  0  0  0  0  0  0  0  0  0  0
    2.4237   -2.2945   -0.8554 O   0  0  0  0  0  0  0  0  0  0  0  0
    3.5494    1.5434   -0.3850 H   0  0  0  0  0  0  0  0  0  0  0  0
    3.6249    0.8838    1.2515 H   0  0  0  0  0  0  0  0  0  0  0  0
    1.3821    1.7740    1.7517 H   0  0  0  0  0  0  0  0  0  0  0  0
    1.2667    2.4768    0.1069 H   0  0  0  0  0  0  0  0  0  0  0  0
    0.1878    3.3082    2.4869 H   0  0  0  0  0  0  0  0  0  0  0  0
   -0.0227    7.5424    3.0758 H   0  0  0  0  0  0  0  0  0  0  0  0
    2.2251    7.8138    2.0795 H   0  0  0  0  0  0  0  0  0  0  0  0
    4.0554   -1.0816   -0.4040 H   0  0  0  0  0  0  0  0  0  0  0  0
    1.4697   -2.0941   -0.7307 H   0  0  0  0  0  0  0  0  0  0  0  0
  1  2  2  0  0  0  0
  2  3  1  0  0  0  0
  2 14  1  0  0  0  0
  3  4  1  0  0  0  0
  3 16  1  0  0  0  0
  3 17  1  0  0  0  0
  4  5  1  0  0  0  0
  4 18  1  0  0  0  0
  4 19  1  0  0  0  0
  5  6  1  0  0  0  0
  6  7  1  0  0  0  0
  6 12  2  0  0  0  0
  7  8  2  0  0  0  0
  7 20  1  0  0  0  0
  8  9  1  0  0  0  0
  8 10  1  0  0  0  0
 10 11  2  0  0  0  0
 10 21  1  0  0  0  0
 11 12  1  0  0  0  0
 11 22  1  0  0  0  0
 12 13  1  0  0  0  0
 14 15  1  0  0  0  0
 14 23  1  0  0  0  0
 15 24  1  0  0  0  0
M  END
>  <Line_Number>
236


> <IC50>
13100

$$$$
