24705008.0
 OpenBabel09302502333D

 27 27  0  0  0  0  0  0  0  0999 V2000
    2.4499   -0.0597   -0.0111 C   0  0  0  0  0  0  0  0  0  0  0  0
    0.9494   -0.0313   -0.0030 C   0  0  0  0  0  0  0  0  0  0  0  0
    0.2672    1.1893   -0.0059 C   0  0  0  0  0  0  0  0  0  0  0  0
   -1.1252    1.2146   -0.0067 C   0  0  0  0  0  0  0  0  0  0  0  0
   -1.8507    0.0221   -0.0052 C   0  0  0  0  0  0  0  0  0  0  0  0
   -1.1895   -1.2092   -0.0005 C   0  0  0  0  0  0  0  0  0  0  0  0
   -1.8006   -2.4407    0.0031 O   0  0  0  0  0  0  0  0  0  0  0  0
   -3.2320   -2.4216    0.0002 C   0  0  0  0  0  0  0  0  0  0  0  0
   -3.7706   -3.8465    0.0044 C   0  0  0  0  0  0  0  0  0  0  0  0
   -5.2815   -3.8299    0.0006 C   0  0  0  0  0  0  0  0  0  0  0  0
   -5.9648   -2.8065   -0.0041 O   0  0  0  0  0  0  0  0  0  0  0  0
   -5.8565   -5.0738    0.0035 N   0  0  0  0  0  0  0  0  0  0  0  0
   -7.2673   -5.1186   -0.0036 O   0  0  0  0  0  0  0  0  0  0  0  0
    0.2109   -1.2275    0.0006 C   0  0  0  0  0  0  0  0  0  0  0  0
    2.8681    0.9531    0.0058 H   0  0  0  0  0  0  0  0  0  0  0  0
    2.8149   -0.5545   -0.9164 H   0  0  0  0  0  0  0  0  0  0  0  0
    2.8262   -0.5881    0.8703 H   0  0  0  0  0  0  0  0  0  0  0  0
    0.8142    2.1295   -0.0082 H   0  0  0  0  0  0  0  0  0  0  0  0
   -1.6500    2.1662   -0.0099 H   0  0  0  0  0  0  0  0  0  0  0  0
   -2.9330    0.0948   -0.0082 H   0  0  0  0  0  0  0  0  0  0  0  0
   -3.5924   -1.9081   -0.9000 H   0  0  0  0  0  0  0  0  0  0  0  0
   -3.5962   -1.9015    0.8951 H   0  0  0  0  0  0  0  0  0  0  0  0
   -3.4160   -4.3837    0.8910 H   0  0  0  0  0  0  0  0  0  0  0  0
   -3.4109   -4.3912   -0.8755 H   0  0  0  0  0  0  0  0  0  0  0  0
   -5.3623   -5.9590   -0.0032 H   0  0  0  0  0  0  0  0  0  0  0  0
   -7.5084   -4.1645   -0.0058 H   0  0  0  0  0  0  0  0  0  0  0  0
    0.7294   -2.1840    0.0029 H   0  0  0  0  0  0  0  0  0  0  0  0
  1  2  1  0  0  0  0
  1 15  1  0  0  0  0
  1 16  1  0  0  0  0
  1 17  1  0  0  0  0
  2  3  1  0  0  0  0
  2 14  2  0  0  0  0
  3  4  2  0  0  0  0
  3 18  1  0  0  0  0
  4  5  1  0  0  0  0
  4 19  1  0  0  0  0
  5  6  2  0  0  0  0
  5 20  1  0  0  0  0
  6  7  1  0  0  0  0
  6 14  1  0  0  0  0
  7  8  1  0  0  0  0
  8  9  1  0  0  0  0
  8 21  1  0  0  0  0
  8 22  1  0  0  0  0
  9 10  1  0  0  0  0
  9 23  1  0  0  0  0
  9 24  1  0  0  0  0
 10 11  2  0  0  0  0
 10 12  1  0  0  0  0
 12 13  1  0  0  0  0
 12 25  1  0  0  0  0
 13 26  1  0  0  0  0
 14 27  1  0  0  0  0
M  END
>  <Line_Number>
237


> <IC50>
3380

$$$$
