145986005.0
 OpenBabel09302502333D

 21 21  0  0  0  0  0  0  0  0999 V2000
    2.1158   -1.2904   -1.1105 O   0  0  0  0  0  0  0  0  0  0  0  0
    1.7934   -0.1301   -0.8546 C   0  0  0  0  0  0  0  0  0  0  0  0
    2.5182    1.0765   -1.4411 C   0  0  0  0  0  0  0  0  0  0  0  0
    2.0570    2.3017   -0.8752 O   0  0  0  0  0  0  0  0  0  0  0  0
    2.6429    3.4512   -1.3341 C   0  0  0  0  0  0  0  0  0  0  0  0
    3.6769    3.5259   -2.2681 C   0  0  0  0  0  0  0  0  0  0  0  0
    4.1862    4.7717   -2.6454 C   0  0  0  0  0  0  0  0  0  0  0  0
    5.4628    4.8506   -3.7978 Cl  0  0  0  0  0  0  0  0  0  0  0  0
    3.6768    5.9474   -2.1026 C   0  0  0  0  0  0  0  0  0  0  0  0
    2.6473    5.8691   -1.1715 C   0  0  0  0  0  0  0  0  0  0  0  0
    2.0053    7.3111   -0.4876 Cl  0  0  0  0  0  0  0  0  0  0  0  0
    2.1304    4.6306   -0.7849 C   0  0  0  0  0  0  0  0  0  0  0  0
    0.7396    0.1663   -0.0284 N   0  0  0  0  0  0  0  0  0  0  0  0
    0.1286   -0.9233    0.6301 O   0  0  0  0  0  0  0  0  0  0  0  0
    2.3365    1.0656   -2.5221 H   0  0  0  0  0  0  0  0  0  0  0  0
    3.5826    0.9408   -1.2178 H   0  0  0  0  0  0  0  0  0  0  0  0
    4.1080    2.6373   -2.7181 H   0  0  0  0  0  0  0  0  0  0  0  0
    4.0786    6.9119   -2.4009 H   0  0  0  0  0  0  0  0  0  0  0  0
    1.3265    4.5823   -0.0546 H   0  0  0  0  0  0  0  0  0  0  0  0
    0.6187    1.0902    0.3769 H   0  0  0  0  0  0  0  0  0  0  0  0
    0.6329   -1.6924    0.2841 H   0  0  0  0  0  0  0  0  0  0  0  0
  1  2  2  0  0  0  0
  2  3  1  0  0  0  0
  2 13  1  0  0  0  0
  3  4  1  0  0  0  0
  3 15  1  0  0  0  0
  3 16  1  0  0  0  0
  4  5  1  0  0  0  0
  5  6  1  0  0  0  0
  5 12  2  0  0  0  0
  6  7  2  0  0  0  0
  6 17  1  0  0  0  0
  7  8  1  0  0  0  0
  7  9  1  0  0  0  0
  9 10  2  0  0  0  0
  9 18  1  0  0  0  0
 10 11  1  0  0  0  0
 10 12  1  0  0  0  0
 12 19  1  0  0  0  0
 13 14  1  0  0  0  0
 13 20  1  0  0  0  0
 14 21  1  0  0  0  0
M  END
>  <Line_Number>
238


> <IC50>
3220

$$$$
