145982530.0
 OpenBabel09302502333D

 27 27  0  0  0  0  0  0  0  0999 V2000
    2.5271    1.0752    0.0029 C   0  0  0  0  0  0  0  0  0  0  0  0
    1.2280    0.3227   -0.0167 C   0  0  0  0  0  0  0  0  0  0  0  0
    0.0053    1.0050   -0.0124 C   0  0  0  0  0  0  0  0  0  0  0  0
   -1.2047    0.3021   -0.0042 C   0  0  0  0  0  0  0  0  0  0  0  0
   -2.5192    1.0236   -0.0018 C   0  0  0  0  0  0  0  0  0  0  0  0
   -1.1770   -1.0985    0.0009 C   0  0  0  0  0  0  0  0  0  0  0  0
    0.0340   -1.7920   -0.0222 C   0  0  0  0  0  0  0  0  0  0  0  0
   -0.0792   -3.1558    0.0145 O   0  0  0  0  0  0  0  0  0  0  0  0
    0.9775   -3.8877   -0.6040 C   0  0  0  0  0  0  0  0  0  0  0  0
    0.7012   -5.3868   -0.5475 C   0  0  0  0  0  0  0  0  0  0  0  0
    1.4669   -6.2270   -1.0210 O   0  0  0  0  0  0  0  0  0  0  0  0
   -0.4618   -5.7414    0.0827 N   0  0  0  0  0  0  0  0  0  0  0  0
   -0.7506   -7.1157    0.2019 O   0  0  0  0  0  0  0  0  0  0  0  0
    1.2350   -1.0818   -0.0216 C   0  0  0  0  0  0  0  0  0  0  0  0
    2.3649    2.1578   -0.0122 H   0  0  0  0  0  0  0  0  0  0  0  0
    3.1273    0.8140   -0.8743 H   0  0  0  0  0  0  0  0  0  0  0  0
    3.0893    0.8328    0.9104 H   0  0  0  0  0  0  0  0  0  0  0  0
   -0.0047    2.0936   -0.0090 H   0  0  0  0  0  0  0  0  0  0  0  0
   -2.3824    2.1098    0.0152 H   0  0  0  0  0  0  0  0  0  0  0  0
   -3.1018    0.7453    0.8823 H   0  0  0  0  0  0  0  0  0  0  0  0
   -3.0884    0.7709   -0.9021 H   0  0  0  0  0  0  0  0  0  0  0  0
   -2.1120   -1.6567    0.0152 H   0  0  0  0  0  0  0  0  0  0  0  0
    1.9246   -3.7303   -0.0766 H   0  0  0  0  0  0  0  0  0  0  0  0
    1.0609   -3.6057   -1.6592 H   0  0  0  0  0  0  0  0  0  0  0  0
   -1.0872   -5.0716    0.5218 H   0  0  0  0  0  0  0  0  0  0  0  0
    0.0208   -7.5308   -0.2418 H   0  0  0  0  0  0  0  0  0  0  0  0
    2.1924   -1.5906    0.0020 H   0  0  0  0  0  0  0  0  0  0  0  0
  1  2  1  0  0  0  0
  1 15  1  0  0  0  0
  1 16  1  0  0  0  0
  1 17  1  0  0  0  0
  2  3  1  0  0  0  0
  2 14  2  0  0  0  0
  3  4  2  0  0  0  0
  3 18  1  0  0  0  0
  4  5  1  0  0  0  0
  4  6  1  0  0  0  0
  5 19  1  0  0  0  0
  5 20  1  0  0  0  0
  5 21  1  0  0  0  0
  6  7  2  0  0  0  0
  6 22  1  0  0  0  0
  7  8  1  0  0  0  0
  7 14  1  0  0  0  0
  8  9  1  0  0  0  0
  9 10  1  0  0  0  0
  9 23  1  0  0  0  0
  9 24  1  0  0  0  0
 10 11  2  0  0  0  0
 10 12  1  0  0  0  0
 12 13  1  0  0  0  0
 12 25  1  0  0  0  0
 13 26  1  0  0  0  0
 14 27  1  0  0  0  0
M  END
>  <Line_Number>
239


> <IC50>
41900

$$$$
