49844558.0
 OpenBabel09302502333D

 30 31  0  0  0  0  0  0  0  0999 V2000
    1.6209   -1.5678    0.1824 O   0  0  0  0  0  0  0  0  0  0  0  0
    0.4621   -0.8454    0.1211 C   0  0  0  0  0  0  0  0  0  0  0  0
   -0.0798   -0.4810   -1.1090 C   0  0  0  0  0  0  0  0  0  0  0  0
   -1.2617    0.2664   -1.1530 C   0  0  0  0  0  0  0  0  0  0  0  0
   -1.9045    0.6586    0.0309 C   0  0  0  0  0  0  0  0  0  0  0  0
   -3.1717    1.4826   -0.0159 C   0  0  0  0  0  0  0  0  0  0  0  0
   -4.4357    0.6170   -0.0361 C   0  0  0  0  0  0  0  0  0  0  0  0
   -5.6998    1.4478    0.0098 C   0  0  0  0  0  0  0  0  0  0  0  0
   -6.3145    1.8820   -1.1729 C   0  0  0  0  0  0  0  0  0  0  0  0
   -7.4862    2.6437   -1.1245 C   0  0  0  0  0  0  0  0  0  0  0  0
   -8.0447    2.9805    0.1062 C   0  0  0  0  0  0  0  0  0  0  0  0
   -9.4911    3.9106    0.1646 Cl  0  0  0  0  0  0  0  0  0  0  0  0
   -7.4392    2.5655    1.2895 C   0  0  0  0  0  0  0  0  0  0  0  0
   -6.2683    1.8038    1.2414 C   0  0  0  0  0  0  0  0  0  0  0  0
   -1.3536    0.2742    1.2636 C   0  0  0  0  0  0  0  0  0  0  0  0
   -0.1739   -0.4709    1.3036 C   0  0  0  0  0  0  0  0  0  0  0  0
    0.3732   -0.8359    2.5021 O   0  0  0  0  0  0  0  0  0  0  0  0
    1.9384   -1.7361   -0.7174 H   0  0  0  0  0  0  0  0  0  0  0  0
    0.4042   -0.7639   -2.0385 H   0  0  0  0  0  0  0  0  0  0  0  0
   -1.6724    0.5484   -2.1202 H   0  0  0  0  0  0  0  0  0  0  0  0
   -3.1458    2.1366   -0.8974 H   0  0  0  0  0  0  0  0  0  0  0  0
   -3.1862    2.1593    0.8487 H   0  0  0  0  0  0  0  0  0  0  0  0
   -4.4367   -0.0791    0.8131 H   0  0  0  0  0  0  0  0  0  0  0  0
   -4.4495   -0.0157   -0.9332 H   0  0  0  0  0  0  0  0  0  0  0  0
   -5.8910    1.6235   -2.1417 H   0  0  0  0  0  0  0  0  0  0  0  0
   -7.9586    2.9671   -2.0486 H   0  0  0  0  0  0  0  0  0  0  0  0
   -7.8744    2.8275    2.2503 H   0  0  0  0  0  0  0  0  0  0  0  0
   -5.8073    1.4839    2.1734 H   0  0  0  0  0  0  0  0  0  0  0  0
   -1.8469    0.5674    2.1856 H   0  0  0  0  0  0  0  0  0  0  0  0
   -0.1651   -0.4717    3.2205 H   0  0  0  0  0  0  0  0  0  0  0  0
  1  2  1  0  0  0  0
  1 18  1  0  0  0  0
  2  3  1  0  0  0  0
  2 16  2  0  0  0  0
  3  4  2  0  0  0  0
  3 19  1  0  0  0  0
  4  5  1  0  0  0  0
  4 20  1  0  0  0  0
  5  6  1  0  0  0  0
  5 15  2  0  0  0  0
  6  7  1  0  0  0  0
  6 21  1  0  0  0  0
  6 22  1  0  0  0  0
  7  8  1  0  0  0  0
  7 23  1  0  0  0  0
  7 24  1  0  0  0  0
  8  9  1  0  0  0  0
  8 14  2  0  0  0  0
  9 10  2  0  0  0  0
  9 25  1  0  0  0  0
 10 11  1  0  0  0  0
 10 26  1  0  0  0  0
 11 12  1  0  0  0  0
 11 13  2  0  0  0  0
 13 14  1  0  0  0  0
 13 27  1  0  0  0  0
 14 28  1  0  0  0  0
 15 16  1  0  0  0  0
 15 29  1  0  0  0  0
 16 17  1  0  0  0  0
 17 30  1  0  0  0  0
M  END
>  <Line_Number>
23


> <IC50>
29200

$$$$
