130677882.0
 OpenBabel09302502333D

 24 24  0  0  0  0  0  0  0  0999 V2000
    2.5003    0.1120    0.0071 C   0  0  0  0  0  0  0  0  0  0  0  0
    0.9993    0.0420    0.0180 C   0  0  0  0  0  0  0  0  0  0  0  0
    0.2678    1.2447   -0.0106 C   0  0  0  0  0  0  0  0  0  0  0  0
   -1.1248    1.2363   -0.0287 C   0  0  0  0  0  0  0  0  0  0  0  0
   -1.8068    0.0261   -0.0497 C   0  0  0  0  0  0  0  0  0  0  0  0
   -1.0965   -1.1710   -0.0229 C   0  0  0  0  0  0  0  0  0  0  0  0
    0.3032   -1.1801    0.0543 C   0  0  0  0  0  0  0  0  0  0  0  0
    1.0465   -2.3357    0.1740 O   0  0  0  0  0  0  0  0  0  0  0  0
    0.3093   -3.4669    0.6466 C   0  0  0  0  0  0  0  0  0  0  0  0
    1.1715   -4.6115    1.1589 C   0  0  0  0  0  0  0  0  0  0  0  0
    0.6978   -5.5985    1.7288 O   0  0  0  0  0  0  0  0  0  0  0  0
    2.5125   -4.4786    0.9377 N   0  0  0  0  0  0  0  0  0  0  0  0
    3.3508   -5.4800    1.4758 O   0  0  0  0  0  0  0  0  0  0  0  0
    2.8489    1.1512    0.0119 H   0  0  0  0  0  0  0  0  0  0  0  0
    2.8995   -0.3584   -0.8986 H   0  0  0  0  0  0  0  0  0  0  0  0
    2.9203   -0.3747    0.8918 H   0  0  0  0  0  0  0  0  0  0  0  0
    0.7856    2.2012   -0.0179 H   0  0  0  0  0  0  0  0  0  0  0  0
   -1.6762    2.1722   -0.0329 H   0  0  0  0  0  0  0  0  0  0  0  0
   -2.8932    0.0121   -0.0798 H   0  0  0  0  0  0  0  0  0  0  0  0
   -1.6754   -2.0911   -0.0615 H   0  0  0  0  0  0  0  0  0  0  0  0
   -0.2950   -3.8751   -0.1710 H   0  0  0  0  0  0  0  0  0  0  0  0
   -0.3239   -3.1796    1.4958 H   0  0  0  0  0  0  0  0  0  0  0  0
    2.9396   -3.6242    0.5921 H   0  0  0  0  0  0  0  0  0  0  0  0
    2.7057   -6.0910    1.8947 H   0  0  0  0  0  0  0  0  0  0  0  0
  1  2  1  0  0  0  0
  1 14  1  0  0  0  0
  1 15  1  0  0  0  0
  1 16  1  0  0  0  0
  2  3  1  0  0  0  0
  2  7  2  0  0  0  0
  3  4  2  0  0  0  0
  3 17  1  0  0  0  0
  4  5  1  0  0  0  0
  4 18  1  0  0  0  0
  5  6  2  0  0  0  0
  5 19  1  0  0  0  0
  6  7  1  0  0  0  0
  6 20  1  0  0  0  0
  7  8  1  0  0  0  0
  8  9  1  0  0  0  0
  9 10  1  0  0  0  0
  9 21  1  0  0  0  0
  9 22  1  0  0  0  0
 10 11  2  0  0  0  0
 10 12  1  0  0  0  0
 12 13  1  0  0  0  0
 12 23  1  0  0  0  0
 13 24  1  0  0  0  0
M  END
>  <Line_Number>
240


> <IC50>
153600

$$$$
