130723063.0
 OpenBabel09302502333D

 21 21  0  0  0  0  0  0  0  0999 V2000
    1.8737    1.7497    0.5635 O   0  0  0  0  0  0  0  0  0  0  0  0
    1.7194    0.5406    0.7394 C   0  0  0  0  0  0  0  0  0  0  0  0
    2.4902   -0.2491    1.7917 C   0  0  0  0  0  0  0  0  0  0  0  0
    2.0205   -1.5905    1.9086 O   0  0  0  0  0  0  0  0  0  0  0  0
    2.6458   -2.3787    2.8405 C   0  0  0  0  0  0  0  0  0  0  0  0
    2.1802   -3.6964    2.8929 C   0  0  0  0  0  0  0  0  0  0  0  0
    2.7271   -4.6113    3.8000 C   0  0  0  0  0  0  0  0  0  0  0  0
    3.7460   -4.2168    4.6651 C   0  0  0  0  0  0  0  0  0  0  0  0
    4.2169   -2.9062    4.6227 C   0  0  0  0  0  0  0  0  0  0  0  0
    3.6692   -2.0002    3.7156 C   0  0  0  0  0  0  0  0  0  0  0  0
    4.1629   -0.7535    3.7192 F   0  0  0  0  0  0  0  0  0  0  0  0
    0.8422   -0.1934   -0.0183 N   0  0  0  0  0  0  0  0  0  0  0  0
    0.0180    0.5380   -0.9044 O   0  0  0  0  0  0  0  0  0  0  0  0
    2.3409    0.2807    2.7393 H   0  0  0  0  0  0  0  0  0  0  0  0
    3.5422   -0.2421    1.4851 H   0  0  0  0  0  0  0  0  0  0  0  0
    1.3851   -4.0200    2.2249 H   0  0  0  0  0  0  0  0  0  0  0  0
    2.3557   -5.6336    3.8294 H   0  0  0  0  0  0  0  0  0  0  0  0
    4.1707   -4.9275    5.3698 H   0  0  0  0  0  0  0  0  0  0  0  0
    5.0091   -2.5812    5.2896 H   0  0  0  0  0  0  0  0  0  0  0  0
    0.5213   -1.1110    0.2770 H   0  0  0  0  0  0  0  0  0  0  0  0
    0.3259    1.4610   -0.7644 H   0  0  0  0  0  0  0  0  0  0  0  0
  1  2  2  0  0  0  0
  2  3  1  0  0  0  0
  2 12  1  0  0  0  0
  3  4  1  0  0  0  0
  3 14  1  0  0  0  0
  3 15  1  0  0  0  0
  4  5  1  0  0  0  0
  5  6  1  0  0  0  0
  5 10  2  0  0  0  0
  6  7  2  0  0  0  0
  6 16  1  0  0  0  0
  7  8  1  0  0  0  0
  7 17  1  0  0  0  0
  8  9  2  0  0  0  0
  8 18  1  0  0  0  0
  9 10  1  0  0  0  0
  9 19  1  0  0  0  0
 10 11  1  0  0  0  0
 12 13  1  0  0  0  0
 12 20  1  0  0  0  0
 13 21  1  0  0  0  0
M  END
>  <Line_Number>
241


> <IC50>
121500

$$$$
