3252458.0
 OpenBabel09302502333D

 21 21  0  0  0  0  0  0  0  0999 V2000
    2.2201    0.8223    1.2313 O   0  0  0  0  0  0  0  0  0  0  0  0
    1.8974   -0.0954    0.4782 C   0  0  0  0  0  0  0  0  0  0  0  0
    2.5767   -1.4614    0.4920 C   0  0  0  0  0  0  0  0  0  0  0  0
    2.0275   -2.3081   -0.5151 O   0  0  0  0  0  0  0  0  0  0  0  0
    2.5049   -3.5874   -0.5828 C   0  0  0  0  0  0  0  0  0  0  0  0
    3.5395   -4.1208    0.1866 C   0  0  0  0  0  0  0  0  0  0  0  0
    3.9230   -5.4555    0.0166 C   0  0  0  0  0  0  0  0  0  0  0  0
    3.2765   -6.2599   -0.9203 C   0  0  0  0  0  0  0  0  0  0  0  0
    2.2483   -5.7300   -1.6950 C   0  0  0  0  0  0  0  0  0  0  0  0
    1.8676   -4.3976   -1.5270 C   0  0  0  0  0  0  0  0  0  0  0  0
    0.8893    0.0355   -0.4394 N   0  0  0  0  0  0  0  0  0  0  0  0
    0.2385    1.2808   -0.5343 O   0  0  0  0  0  0  0  0  0  0  0  0
    2.4139   -1.8938    1.4860 H   0  0  0  0  0  0  0  0  0  0  0  0
    3.6425   -1.2926    0.3016 H   0  0  0  0  0  0  0  0  0  0  0  0
    4.0722   -3.5310    0.9251 H   0  0  0  0  0  0  0  0  0  0  0  0
    4.7291   -5.8686    0.6182 H   0  0  0  0  0  0  0  0  0  0  0  0
    3.5745   -7.2977   -1.0467 H   0  0  0  0  0  0  0  0  0  0  0  0
    1.7418   -6.3517   -2.4286 H   0  0  0  0  0  0  0  0  0  0  0  0
    1.0643   -3.9914   -2.1366 H   0  0  0  0  0  0  0  0  0  0  0  0
    0.6445   -0.6931   -1.1037 H   0  0  0  0  0  0  0  0  0  0  0  0
    0.7049    1.8137    0.1450 H   0  0  0  0  0  0  0  0  0  0  0  0
  1  2  2  0  0  0  0
  2  3  1  0  0  0  0
  2 11  1  0  0  0  0
  3  4  1  0  0  0  0
  3 13  1  0  0  0  0
  3 14  1  0  0  0  0
  4  5  1  0  0  0  0
  5  6  1  0  0  0  0
  5 10  2  0  0  0  0
  6  7  2  0  0  0  0
  6 15  1  0  0  0  0
  7  8  1  0  0  0  0
  7 16  1  0  0  0  0
  8  9  2  0  0  0  0
  8 17  1  0  0  0  0
  9 10  1  0  0  0  0
  9 18  1  0  0  0  0
 10 19  1  0  0  0  0
 11 12  1  0  0  0  0
 11 20  1  0  0  0  0
 12 21  1  0  0  0  0
M  END
>  <Line_Number>
242


> <IC50>
131200

$$$$
