95562486.0
 OpenBabel09302502333D

 21 21  0  0  0  0  0  0  0  0999 V2000
   -1.1211    0.6715   -0.3776 O   0  0  0  0  0  0  0  0  0  0  0  0
    0.0119    0.4477   -0.8037 C   0  0  0  0  0  0  0  0  0  0  0  0
    0.5831    1.1636   -2.0238 C   0  0  0  0  0  0  0  0  0  0  0  0
    1.9490    0.8484   -2.2774 O   0  0  0  0  0  0  0  0  0  0  0  0
    2.5011    1.4747   -3.3710 C   0  0  0  0  0  0  0  0  0  0  0  0
    2.1279    2.7566   -3.7935 C   0  0  0  0  0  0  0  0  0  0  0  0
    2.7399    3.3497   -4.9009 C   0  0  0  0  0  0  0  0  0  0  0  0
    3.7420    2.6759   -5.5923 C   0  0  0  0  0  0  0  0  0  0  0  0
    4.1415    1.4087   -5.1698 C   0  0  0  0  0  0  0  0  0  0  0  0
    3.5303    0.8128   -4.0610 C   0  0  0  0  0  0  0  0  0  0  0  0
    4.0668   -0.7591   -3.5836 Cl  0  0  0  0  0  0  0  0  0  0  0  0
    0.8515   -0.4446   -0.1924 N   0  0  0  0  0  0  0  0  0  0  0  0
    0.4033   -0.9627    1.0466 O   0  0  0  0  0  0  0  0  0  0  0  0
    0.4741    2.2289   -1.7886 H   0  0  0  0  0  0  0  0  0  0  0  0
   -0.0313    0.8906   -2.8888 H   0  0  0  0  0  0  0  0  0  0  0  0
    1.3772    3.3395   -3.2710 H   0  0  0  0  0  0  0  0  0  0  0  0
    2.4370    4.3462   -5.2155 H   0  0  0  0  0  0  0  0  0  0  0  0
    4.2167    3.1416   -6.4528 H   0  0  0  0  0  0  0  0  0  0  0  0
    4.9328    0.8918   -5.7079 H   0  0  0  0  0  0  0  0  0  0  0  0
    1.8512   -0.4571   -0.3754 H   0  0  0  0  0  0  0  0  0  0  0  0
   -0.4626   -0.5123    1.1637 H   0  0  0  0  0  0  0  0  0  0  0  0
  1  2  2  0  0  0  0
  2  3  1  0  0  0  0
  2 12  1  0  0  0  0
  3  4  1  0  0  0  0
  3 14  1  0  0  0  0
  3 15  1  0  0  0  0
  4  5  1  0  0  0  0
  5  6  1  0  0  0  0
  5 10  2  0  0  0  0
  6  7  2  0  0  0  0
  6 16  1  0  0  0  0
  7  8  1  0  0  0  0
  7 17  1  0  0  0  0
  8  9  2  0  0  0  0
  8 18  1  0  0  0  0
  9 10  1  0  0  0  0
  9 19  1  0  0  0  0
 10 11  1  0  0  0  0
 12 13  1  0  0  0  0
 12 20  1  0  0  0  0
 13 21  1  0  0  0  0
M  END
>  <Line_Number>
243


> <IC50>
78500

$$$$
