145984703.0
 OpenBabel09302502333D

 21 21  0  0  0  0  0  0  0  0999 V2000
    2.3251   -1.6120   -0.0069 O   0  0  0  0  0  0  0  0  0  0  0  0
    1.9416   -0.5208   -0.4210 C   0  0  0  0  0  0  0  0  0  0  0  0
    2.6023    0.2017   -1.5930 C   0  0  0  0  0  0  0  0  0  0  0  0
    2.0181    1.4879   -1.7806 O   0  0  0  0  0  0  0  0  0  0  0  0
    2.4308    2.2415   -2.8476 C   0  0  0  0  0  0  0  0  0  0  0  0
    3.4838    1.8975   -3.7011 C   0  0  0  0  0  0  0  0  0  0  0  0
    3.8188    2.7355   -4.7685 C   0  0  0  0  0  0  0  0  0  0  0  0
    5.1135    2.3005   -5.8176 Cl  0  0  0  0  0  0  0  0  0  0  0  0
    3.1179    3.9183   -4.9980 C   0  0  0  0  0  0  0  0  0  0  0  0
    2.0746    4.2752   -4.1442 C   0  0  0  0  0  0  0  0  0  0  0  0
    1.7356    3.4420   -3.0747 C   0  0  0  0  0  0  0  0  0  0  0  0
    0.4379    3.9330   -2.0420 Cl  0  0  0  0  0  0  0  0  0  0  0  0
    0.8807    0.1461    0.1372 N   0  0  0  0  0  0  0  0  0  0  0  0
    0.2873   -0.4073    1.2887 O   0  0  0  0  0  0  0  0  0  0  0  0
    2.4597   -0.4208   -2.4832 H   0  0  0  0  0  0  0  0  0  0  0  0
    3.6651    0.3080   -1.3485 H   0  0  0  0  0  0  0  0  0  0  0  0
    4.0632    0.9916   -3.5587 H   0  0  0  0  0  0  0  0  0  0  0  0
    3.3798    4.5641   -5.8313 H   0  0  0  0  0  0  0  0  0  0  0  0
    1.5297    5.2000   -4.3173 H   0  0  0  0  0  0  0  0  0  0  0  0
    0.6326    1.0978   -0.1226 H   0  0  0  0  0  0  0  0  0  0  0  0
    0.8598   -1.1808    1.4758 H   0  0  0  0  0  0  0  0  0  0  0  0
  1  2  2  0  0  0  0
  2  3  1  0  0  0  0
  2 13  1  0  0  0  0
  3  4  1  0  0  0  0
  3 15  1  0  0  0  0
  3 16  1  0  0  0  0
  4  5  1  0  0  0  0
  5  6  1  0  0  0  0
  5 11  2  0  0  0  0
  6  7  2  0  0  0  0
  6 17  1  0  0  0  0
  7  8  1  0  0  0  0
  7  9  1  0  0  0  0
  9 10  2  0  0  0  0
  9 18  1  0  0  0  0
 10 11  1  0  0  0  0
 10 19  1  0  0  0  0
 11 12  1  0  0  0  0
 13 14  1  0  0  0  0
 13 20  1  0  0  0  0
 14 21  1  0  0  0  0
M  END
>  <Line_Number>
244


> <IC50>
9020

$$$$
