11183280.0
 OpenBabel09302502333D

 21 21  0  0  0  0  0  0  0  0999 V2000
    1.1881   -1.7134    1.2944 O   0  0  0  0  0  0  0  0  0  0  0  0
    1.6310   -0.5874    1.0805 C   0  0  0  0  0  0  0  0  0  0  0  0
    1.6117    0.5226    2.1245 C   0  0  0  0  0  0  0  0  0  0  0  0
    2.1627    1.7404    1.6182 O   0  0  0  0  0  0  0  0  0  0  0  0
    2.5858    2.6215    2.5769 C   0  0  0  0  0  0  0  0  0  0  0  0
    3.5974    3.5023    2.1861 C   0  0  0  0  0  0  0  0  0  0  0  0
    4.1430    4.4009    3.1070 C   0  0  0  0  0  0  0  0  0  0  0  0
    3.6615    4.4272    4.4139 C   0  0  0  0  0  0  0  0  0  0  0  0
    4.3540    5.5037    5.5623 Cl  0  0  0  0  0  0  0  0  0  0  0  0
    2.6230    3.5832    4.7981 C   0  0  0  0  0  0  0  0  0  0  0  0
    2.0764    2.6872    3.8757 C   0  0  0  0  0  0  0  0  0  0  0  0
    2.1965   -0.2403   -0.1180 N   0  0  0  0  0  0  0  0  0  0  0  0
    2.1738   -1.2055   -1.1457 O   0  0  0  0  0  0  0  0  0  0  0  0
    2.1928    0.1517    2.9771 H   0  0  0  0  0  0  0  0  0  0  0  0
    0.5661    0.6892    2.4063 H   0  0  0  0  0  0  0  0  0  0  0  0
    3.9817    3.4774    1.1691 H   0  0  0  0  0  0  0  0  0  0  0  0
    4.9466    5.0662    2.8023 H   0  0  0  0  0  0  0  0  0  0  0  0
    2.2363    3.6107    5.8136 H   0  0  0  0  0  0  0  0  0  0  0  0
    1.2565    2.0533    4.1997 H   0  0  0  0  0  0  0  0  0  0  0  0
    2.4196    0.7198   -0.3634 H   0  0  0  0  0  0  0  0  0  0  0  0
    1.7373   -1.9692   -0.7087 H   0  0  0  0  0  0  0  0  0  0  0  0
  1  2  2  0  0  0  0
  2  3  1  0  0  0  0
  2 12  1  0  0  0  0
  3  4  1  0  0  0  0
  3 14  1  0  0  0  0
  3 15  1  0  0  0  0
  4  5  1  0  0  0  0
  5  6  1  0  0  0  0
  5 11  2  0  0  0  0
  6  7  2  0  0  0  0
  6 16  1  0  0  0  0
  7  8  1  0  0  0  0
  7 17  1  0  0  0  0
  8  9  1  0  0  0  0
  8 10  2  0  0  0  0
 10 11  1  0  0  0  0
 10 18  1  0  0  0  0
 11 19  1  0  0  0  0
 12 13  1  0  0  0  0
 12 20  1  0  0  0  0
 13 21  1  0  0  0  0
M  END
>  <Line_Number>
245


> <IC50>
1260

$$$$
