145984003.0
 OpenBabel09302502333D

 21 21  0  0  0  0  0  0  0  0999 V2000
    2.6529   -1.1668    0.5873 O   0  0  0  0  0  0  0  0  0  0  0  0
    2.1554   -0.3611   -0.2023 C   0  0  0  0  0  0  0  0  0  0  0  0
    2.9043    0.1730   -1.4203 C   0  0  0  0  0  0  0  0  0  0  0  0
    2.0808    1.0110   -2.2181 O   0  0  0  0  0  0  0  0  0  0  0  0
    2.5904    1.6624   -3.3132 C   0  0  0  0  0  0  0  0  0  0  0  0
    3.6667    1.2852   -4.1347 C   0  0  0  0  0  0  0  0  0  0  0  0
    4.6697   -0.1024   -3.9009 Cl  0  0  0  0  0  0  0  0  0  0  0  0
    3.9815    2.0342   -5.2832 C   0  0  0  0  0  0  0  0  0  0  0  0
    3.2461    3.1627   -5.6321 C   0  0  0  0  0  0  0  0  0  0  0  0
    2.1883    3.5596   -4.8258 C   0  0  0  0  0  0  0  0  0  0  0  0
    1.8642    2.8171   -3.6846 C   0  0  0  0  0  0  0  0  0  0  0  0
    0.5267    3.3800   -2.7332 Cl  0  0  0  0  0  0  0  0  0  0  0  0
    0.8605    0.0758   -0.0665 N   0  0  0  0  0  0  0  0  0  0  0  0
    0.0844   -0.5755    0.9194 O   0  0  0  0  0  0  0  0  0  0  0  0
    3.1643   -0.7298   -1.9723 H   0  0  0  0  0  0  0  0  0  0  0  0
    3.7869    0.7179   -1.0685 H   0  0  0  0  0  0  0  0  0  0  0  0
    4.8036    1.7251   -5.9277 H   0  0  0  0  0  0  0  0  0  0  0  0
    3.4958    3.7226   -6.5303 H   0  0  0  0  0  0  0  0  0  0  0  0
    1.6116    4.4423   -5.0937 H   0  0  0  0  0  0  0  0  0  0  0  0
    0.3666    0.5416   -0.8236 H   0  0  0  0  0  0  0  0  0  0  0  0
    0.7132   -1.2378    1.2820 H   0  0  0  0  0  0  0  0  0  0  0  0
  1  2  2  0  0  0  0
  2  3  1  0  0  0  0
  2 13  1  0  0  0  0
  3  4  1  0  0  0  0
  3 15  1  0  0  0  0
  3 16  1  0  0  0  0
  4  5  1  0  0  0  0
  5  6  1  0  0  0  0
  5 11  2  0  0  0  0
  6  7  1  0  0  0  0
  6  8  2  0  0  0  0
  8  9  1  0  0  0  0
  8 17  1  0  0  0  0
  9 10  2  0  0  0  0
  9 18  1  0  0  0  0
 10 11  1  0  0  0  0
 10 19  1  0  0  0  0
 11 12  1  0  0  0  0
 13 14  1  0  0  0  0
 13 20  1  0  0  0  0
 14 21  1  0  0  0  0
M  END
>  <Line_Number>
246


> <IC50>
353200

$$$$
