145984790.0
 OpenBabel09302502333D

 21 21  0  0  0  0  0  0  0  0999 V2000
    1.3242    1.8025    1.6397 O   0  0  0  0  0  0  0  0  0  0  0  0
    1.6996    1.4226    0.5305 C   0  0  0  0  0  0  0  0  0  0  0  0
    1.7089    2.3262   -0.6931 C   0  0  0  0  0  0  0  0  0  0  0  0
    2.2322    1.6677   -1.8483 O   0  0  0  0  0  0  0  0  0  0  0  0
    2.6765    2.5060   -2.8366 C   0  0  0  0  0  0  0  0  0  0  0  0
    3.6542    1.9849   -3.6829 C   0  0  0  0  0  0  0  0  0  0  0  0
    4.2218    2.7861   -4.6791 C   0  0  0  0  0  0  0  0  0  0  0  0
    3.8013    4.1096   -4.8400 C   0  0  0  0  0  0  0  0  0  0  0  0
    4.5743    5.0604   -6.0571 Cl  0  0  0  0  0  0  0  0  0  0  0  0
    2.7898    4.6181   -4.0206 C   0  0  0  0  0  0  0  0  0  0  0  0
    2.2087    6.2407   -4.1599 Cl  0  0  0  0  0  0  0  0  0  0  0  0
    2.2201    3.8111   -3.0292 C   0  0  0  0  0  0  0  0  0  0  0  0
    2.1464    0.1486    0.3126 N   0  0  0  0  0  0  0  0  0  0  0  0
    2.1455   -0.7432    1.4063 O   0  0  0  0  0  0  0  0  0  0  0  0
    2.3253    3.1928   -0.4232 H   0  0  0  0  0  0  0  0  0  0  0  0
    0.6733    2.6278   -0.8846 H   0  0  0  0  0  0  0  0  0  0  0  0
    3.9968    0.9619   -3.5578 H   0  0  0  0  0  0  0  0  0  0  0  0
    5.0015    2.3753   -5.3165 H   0  0  0  0  0  0  0  0  0  0  0  0
    1.4228    4.2266   -2.4186 H   0  0  0  0  0  0  0  0  0  0  0  0
    2.4161   -0.2060   -0.6007 H   0  0  0  0  0  0  0  0  0  0  0  0
    1.7874   -0.1846    2.1310 H   0  0  0  0  0  0  0  0  0  0  0  0
  1  2  2  0  0  0  0
  2  3  1  0  0  0  0
  2 13  1  0  0  0  0
  3  4  1  0  0  0  0
  3 15  1  0  0  0  0
  3 16  1  0  0  0  0
  4  5  1  0  0  0  0
  5  6  1  0  0  0  0
  5 12  2  0  0  0  0
  6  7  2  0  0  0  0
  6 17  1  0  0  0  0
  7  8  1  0  0  0  0
  7 18  1  0  0  0  0
  8  9  1  0  0  0  0
  8 10  2  0  0  0  0
 10 11  1  0  0  0  0
 10 12  1  0  0  0  0
 12 19  1  0  0  0  0
 13 14  1  0  0  0  0
 13 20  1  0  0  0  0
 14 21  1  0  0  0  0
M  END
>  <Line_Number>
247


> <IC50>
520

$$$$
