21935074.0
 OpenBabel09302502333D

 24 24  0  0  0  0  0  0  0  0999 V2000
    1.0740    0.1167    0.1062 O   0  0  0  0  0  0  0  0  0  0  0  0
    2.2952    0.1163   -0.0260 C   0  0  0  0  0  0  0  0  0  0  0  0
    3.0167    0.5011   -1.2936 C   0  0  0  0  0  0  0  0  0  0  0  0
    2.0291    0.9115   -2.3745 C   0  0  0  0  0  0  0  0  0  0  0  0
    2.7612    1.2706   -3.5495 O   0  0  0  0  0  0  0  0  0  0  0  0
    2.0183    1.7196   -4.6101 C   0  0  0  0  0  0  0  0  0  0  0  0
    0.6243    1.7892   -4.6594 C   0  0  0  0  0  0  0  0  0  0  0  0
   -0.0189    2.2752   -5.8014 C   0  0  0  0  0  0  0  0  0  0  0  0
    0.7262    2.6928   -6.9016 C   0  0  0  0  0  0  0  0  0  0  0  0
    2.1164    2.6211   -6.8629 C   0  0  0  0  0  0  0  0  0  0  0  0
    2.7589    2.1348   -5.7212 C   0  0  0  0  0  0  0  0  0  0  0  0
    3.1352   -0.2431    0.9971 N   0  0  0  0  0  0  0  0  0  0  0  0
    2.5272   -0.6479    2.2049 O   0  0  0  0  0  0  0  0  0  0  0  0
    3.6200   -0.3470   -1.6372 H   0  0  0  0  0  0  0  0  0  0  0  0
    3.7063    1.3264   -1.0812 H   0  0  0  0  0  0  0  0  0  0  0  0
    1.4423    1.7695   -2.0223 H   0  0  0  0  0  0  0  0  0  0  0  0
    1.3603    0.0705   -2.5959 H   0  0  0  0  0  0  0  0  0  0  0  0
    0.0040    1.4731   -3.8273 H   0  0  0  0  0  0  0  0  0  0  0  0
   -1.1045    2.3273   -5.8283 H   0  0  0  0  0  0  0  0  0  0  0  0
    0.2229    3.0725   -7.7869 H   0  0  0  0  0  0  0  0  0  0  0  0
    2.7018    2.9444   -7.7194 H   0  0  0  0  0  0  0  0  0  0  0  0
    3.8437    2.0815   -5.6974 H   0  0  0  0  0  0  0  0  0  0  0  0
    4.1422   -0.3369    0.9273 H   0  0  0  0  0  0  0  0  0  0  0  0
    1.5704   -0.5514    2.0027 H   0  0  0  0  0  0  0  0  0  0  0  0
  1  2  2  0  0  0  0
  2  3  1  0  0  0  0
  2 12  1  0  0  0  0
  3  4  1  0  0  0  0
  3 14  1  0  0  0  0
  3 15  1  0  0  0  0
  4  5  1  0  0  0  0
  4 16  1  0  0  0  0
  4 17  1  0  0  0  0
  5  6  1  0  0  0  0
  6  7  1  0  0  0  0
  6 11  2  0  0  0  0
  7  8  2  0  0  0  0
  7 18  1  0  0  0  0
  8  9  1  0  0  0  0
  8 19  1  0  0  0  0
  9 10  2  0  0  0  0
  9 20  1  0  0  0  0
 10 11  1  0  0  0  0
 10 21  1  0  0  0  0
 11 22  1  0  0  0  0
 12 13  1  0  0  0  0
 12 23  1  0  0  0  0
 13 24  1  0  0  0  0
M  END
>  <Line_Number>
248


> <IC50>
4180

$$$$
