145983648.0
 OpenBabel09302502333D

 24 24  0  0  0  0  0  0  0  0999 V2000
    1.1069   -0.0978   -0.1508 O   0  0  0  0  0  0  0  0  0  0  0  0
    2.3304   -0.0849   -0.0391 C   0  0  0  0  0  0  0  0  0  0  0  0
    3.0647   -0.0168    1.2758 C   0  0  0  0  0  0  0  0  0  0  0  0
    2.0813   -0.0040    2.4340 C   0  0  0  0  0  0  0  0  0  0  0  0
    2.8071    0.0537    3.6648 O   0  0  0  0  0  0  0  0  0  0  0  0
    2.0499    0.0466    4.8073 C   0  0  0  0  0  0  0  0  0  0  0  0
    0.6530    0.0206    4.8575 C   0  0  0  0  0  0  0  0  0  0  0  0
   -0.0113    0.0101    6.0881 C   0  0  0  0  0  0  0  0  0  0  0  0
    0.7204    0.0249    7.2728 C   0  0  0  0  0  0  0  0  0  0  0  0
   -0.1022    0.0088    8.7830 Cl  0  0  0  0  0  0  0  0  0  0  0  0
    2.1118    0.0519    7.2365 C   0  0  0  0  0  0  0  0  0  0  0  0
    2.7719    0.0624    6.0041 C   0  0  0  0  0  0  0  0  0  0  0  0
    3.1559   -0.1364   -1.1317 N   0  0  0  0  0  0  0  0  0  0  0  0
    2.5327   -0.1613   -2.3988 O   0  0  0  0  0  0  0  0  0  0  0  0
    3.6861    0.8866    1.2966 H   0  0  0  0  0  0  0  0  0  0  0  0
    3.7390   -0.8777    1.3609 H   0  0  0  0  0  0  0  0  0  0  0  0
    1.4758   -0.9187    2.4020 H   0  0  0  0  0  0  0  0  0  0  0  0
    1.4307    0.8753    2.3457 H   0  0  0  0  0  0  0  0  0  0  0  0
    0.0445    0.0098    3.9584 H   0  0  0  0  0  0  0  0  0  0  0  0
   -1.0984   -0.0103    6.1106 H   0  0  0  0  0  0  0  0  0  0  0  0
    2.6860    0.0644    8.1589 H   0  0  0  0  0  0  0  0  0  0  0  0
    3.8606    0.0841    5.9795 H   0  0  0  0  0  0  0  0  0  0  0  0
    4.1663   -0.0390   -1.1140 H   0  0  0  0  0  0  0  0  0  0  0  0
    1.5780   -0.1502   -2.1649 H   0  0  0  0  0  0  0  0  0  0  0  0
  1  2  2  0  0  0  0
  2  3  1  0  0  0  0
  2 13  1  0  0  0  0
  3  4  1  0  0  0  0
  3 15  1  0  0  0  0
  3 16  1  0  0  0  0
  4  5  1  0  0  0  0
  4 17  1  0  0  0  0
  4 18  1  0  0  0  0
  5  6  1  0  0  0  0
  6  7  1  0  0  0  0
  6 12  2  0  0  0  0
  7  8  2  0  0  0  0
  7 19  1  0  0  0  0
  8  9  1  0  0  0  0
  8 20  1  0  0  0  0
  9 10  1  0  0  0  0
  9 11  2  0  0  0  0
 11 12  1  0  0  0  0
 11 21  1  0  0  0  0
 12 22  1  0  0  0  0
 13 14  1  0  0  0  0
 13 23  1  0  0  0  0
 14 24  1  0  0  0  0
M  END
>  <Line_Number>
249


> <IC50>
247

$$$$
