49844701.0
 OpenBabel09302502333D

 36 37  0  0  0  0  0  0  0  0999 V2000
    0.9469   -0.3016   -0.4222 C   0  0  0  0  0  0  0  0  0  0  0  0
    2.3127   -0.0220   -0.1374 O   0  0  0  0  0  0  0  0  0  0  0  0
    3.0380   -1.0319    0.4391 C   0  0  0  0  0  0  0  0  0  0  0  0
    2.7073   -2.3816    0.2759 C   0  0  0  0  0  0  0  0  0  0  0  0
    3.5128   -3.3921    0.8086 C   0  0  0  0  0  0  0  0  0  0  0  0
    4.6930   -3.0852    1.4889 C   0  0  0  0  0  0  0  0  0  0  0  0
    5.5839   -4.1501    2.0973 C   0  0  0  0  0  0  0  0  0  0  0  0
    5.6010   -5.4859    1.3354 C   0  0  0  0  0  0  0  0  0  0  0  0
    6.5135   -6.5690    1.8677 C   0  0  0  0  0  0  0  0  0  0  0  0
    6.8181   -6.7051    3.2307 C   0  0  0  0  0  0  0  0  0  0  0  0
    7.5837   -7.7883    3.6795 C   0  0  0  0  0  0  0  0  0  0  0  0
    8.0374   -8.7456    2.7752 C   0  0  0  0  0  0  0  0  0  0  0  0
    8.9476  -10.0921    3.3378 Cl  0  0  0  0  0  0  0  0  0  0  0  0
    7.7421   -8.6266    1.4211 C   0  0  0  0  0  0  0  0  0  0  0  0
    6.9813   -7.5459    0.9716 C   0  0  0  0  0  0  0  0  0  0  0  0
    5.0155   -1.7307    1.6636 C   0  0  0  0  0  0  0  0  0  0  0  0
    4.1985   -0.7054    1.1584 C   0  0  0  0  0  0  0  0  0  0  0  0
    4.6840    0.5518    1.4196 O   0  0  0  0  0  0  0  0  0  0  0  0
    3.7200    1.5844    1.5854 C   0  0  0  0  0  0  0  0  0  0  0  0
    0.4833    0.6229   -0.7794 H   0  0  0  0  0  0  0  0  0  0  0  0
    0.4174   -0.6174    0.4830 H   0  0  0  0  0  0  0  0  0  0  0  0
    0.8437   -1.0426   -1.2211 H   0  0  0  0  0  0  0  0  0  0  0  0
    1.8336   -2.6926   -0.2856 H   0  0  0  0  0  0  0  0  0  0  0  0
    3.1946   -4.4207    0.6608 H   0  0  0  0  0  0  0  0  0  0  0  0
    5.2440   -4.3023    3.1284 H   0  0  0  0  0  0  0  0  0  0  0  0
    6.6123   -3.7688    2.1463 H   0  0  0  0  0  0  0  0  0  0  0  0
    5.8742   -5.2788    0.2914 H   0  0  0  0  0  0  0  0  0  0  0  0
    4.5952   -5.9217    1.3223 H   0  0  0  0  0  0  0  0  0  0  0  0
    6.4572   -5.9929    3.9632 H   0  0  0  0  0  0  0  0  0  0  0  0
    7.8078   -7.8841    4.7392 H   0  0  0  0  0  0  0  0  0  0  0  0
    8.0864   -9.3760    0.7129 H   0  0  0  0  0  0  0  0  0  0  0  0
    6.7402   -7.4780   -0.0877 H   0  0  0  0  0  0  0  0  0  0  0  0
    5.9159   -1.4547    2.2094 H   0  0  0  0  0  0  0  0  0  0  0  0
    4.2066    2.4079    2.1189 H   0  0  0  0  0  0  0  0  0  0  0  0
    2.8670    1.2600    2.1918 H   0  0  0  0  0  0  0  0  0  0  0  0
    3.3996    1.9782    0.6171 H   0  0  0  0  0  0  0  0  0  0  0  0
  1  2  1  0  0  0  0
  1 20  1  0  0  0  0
  1 21  1  0  0  0  0
  1 22  1  0  0  0  0
  2  3  1  0  0  0  0
  3  4  1  0  0  0  0
  3 17  2  0  0  0  0
  4  5  2  0  0  0  0
  4 23  1  0  0  0  0
  5  6  1  0  0  0  0
  5 24  1  0  0  0  0
  6  7  1  0  0  0  0
  6 16  2  0  0  0  0
  7  8  1  0  0  0  0
  7 25  1  0  0  0  0
  7 26  1  0  0  0  0
  8  9  1  0  0  0  0
  8 27  1  0  0  0  0
  8 28  1  0  0  0  0
  9 10  1  0  0  0  0
  9 15  2  0  0  0  0
 10 11  2  0  0  0  0
 10 29  1  0  0  0  0
 11 12  1  0  0  0  0
 11 30  1  0  0  0  0
 12 13  1  0  0  0  0
 12 14  2  0  0  0  0
 14 15  1  0  0  0  0
 14 31  1  0  0  0  0
 15 32  1  0  0  0  0
 16 17  1  0  0  0  0
 16 33  1  0  0  0  0
 17 18  1  0  0  0  0
 18 19  1  0  0  0  0
 19 34  1  0  0  0  0
 19 35  1  0  0  0  0
 19 36  1  0  0  0  0
M  END
>  <Line_Number>
24


> <IC50>
254000

$$$$
