60651050.0
 OpenBabel09302502333D

 21 21  0  0  0  0  0  0  0  0999 V2000
    2.1071    1.3607   -1.4273 O   0  0  0  0  0  0  0  0  0  0  0  0
    1.8282    1.0298   -0.2753 C   0  0  0  0  0  0  0  0  0  0  0  0
    2.5471    1.5972    0.9434 C   0  0  0  0  0  0  0  0  0  0  0  0
    2.0743    1.0267    2.1616 O   0  0  0  0  0  0  0  0  0  0  0  0
    2.6434    1.4966    3.3155 C   0  0  0  0  0  0  0  0  0  0  0  0
    3.6683    2.4434    3.3918 C   0  0  0  0  0  0  0  0  0  0  0  0
    4.1686    2.8450    4.6341 C   0  0  0  0  0  0  0  0  0  0  0  0
    3.6483    2.3015    5.8067 C   0  0  0  0  0  0  0  0  0  0  0  0
    2.6285    1.3561    5.7321 C   0  0  0  0  0  0  0  0  0  0  0  0
    1.9842    0.6838    7.1795 Cl  0  0  0  0  0  0  0  0  0  0  0  0
    2.1265    0.9519    4.4949 C   0  0  0  0  0  0  0  0  0  0  0  0
    0.8394    0.1243    0.0025 N   0  0  0  0  0  0  0  0  0  0  0  0
    0.1866   -0.4796   -1.0910 O   0  0  0  0  0  0  0  0  0  0  0  0
    2.3692    2.6789    0.9392 H   0  0  0  0  0  0  0  0  0  0  0  0
    3.6117    1.3703    0.8140 H   0  0  0  0  0  0  0  0  0  0  0  0
    4.1060    2.8931    2.5058 H   0  0  0  0  0  0  0  0  0  0  0  0
    4.9655    3.5833    4.6845 H   0  0  0  0  0  0  0  0  0  0  0  0
    4.0405    2.6173    6.7699 H   0  0  0  0  0  0  0  0  0  0  0  0
    1.3304    0.2135    4.4475 H   0  0  0  0  0  0  0  0  0  0  0  0
    0.6673   -0.2452    0.9330 H   0  0  0  0  0  0  0  0  0  0  0  0
    0.6284   -0.0585   -1.8604 H   0  0  0  0  0  0  0  0  0  0  0  0
  1  2  2  0  0  0  0
  2  3  1  0  0  0  0
  2 12  1  0  0  0  0
  3  4  1  0  0  0  0
  3 14  1  0  0  0  0
  3 15  1  0  0  0  0
  4  5  1  0  0  0  0
  5  6  1  0  0  0  0
  5 11  2  0  0  0  0
  6  7  2  0  0  0  0
  6 16  1  0  0  0  0
  7  8  1  0  0  0  0
  7 17  1  0  0  0  0
  8  9  2  0  0  0  0
  8 18  1  0  0  0  0
  9 10  1  0  0  0  0
  9 11  1  0  0  0  0
 11 19  1  0  0  0  0
 12 13  1  0  0  0  0
 12 20  1  0  0  0  0
 13 21  1  0  0  0  0
M  END
>  <Line_Number>
250


> <IC50>
10400

$$$$
