59336415.0
 OpenBabel09302502333D

 24 24  0  0  0  0  0  0  0  0999 V2000
    2.4646   -0.0155   -0.0092 C   0  0  0  0  0  0  0  0  0  0  0  0
    0.9647    0.0229   -0.0110 C   0  0  0  0  0  0  0  0  0  0  0  0
    0.2718    1.2386   -0.0142 C   0  0  0  0  0  0  0  0  0  0  0  0
   -1.1288    1.2638   -0.0251 C   0  0  0  0  0  0  0  0  0  0  0  0
   -1.8480    0.0703   -0.0318 C   0  0  0  0  0  0  0  0  0  0  0  0
   -3.2098   -0.0362   -0.0030 O   0  0  0  0  0  0  0  0  0  0  0  0
   -3.9347    1.0174   -0.6348 C   0  0  0  0  0  0  0  0  0  0  0  0
   -5.4349    0.7386   -0.5801 C   0  0  0  0  0  0  0  0  0  0  0  0
   -6.2743    1.4987   -1.0628 O   0  0  0  0  0  0  0  0  0  0  0  0
   -5.7873   -0.4186    0.0597 N   0  0  0  0  0  0  0  0  0  0  0  0
   -7.1593   -0.7238    0.1577 O   0  0  0  0  0  0  0  0  0  0  0  0
   -1.1592   -1.1443   -0.0073 C   0  0  0  0  0  0  0  0  0  0  0  0
    0.2360   -1.1706   -0.0067 C   0  0  0  0  0  0  0  0  0  0  0  0
    2.8922    0.9922    0.0095 H   0  0  0  0  0  0  0  0  0  0  0  0
    2.8276   -0.5182   -0.9110 H   0  0  0  0  0  0  0  0  0  0  0  0
    2.8289   -0.5510    0.8732 H   0  0  0  0  0  0  0  0  0  0  0  0
    0.8176    2.1804   -0.0000 H   0  0  0  0  0  0  0  0  0  0  0  0
   -1.6201    2.2303   -0.0011 H   0  0  0  0  0  0  0  0  0  0  0  0
   -3.6487    1.0897   -1.6899 H   0  0  0  0  0  0  0  0  0  0  0  0
   -3.7774    1.9684   -0.1167 H   0  0  0  0  0  0  0  0  0  0  0  0
   -5.1144   -1.0600    0.4697 H   0  0  0  0  0  0  0  0  0  0  0  0
   -7.5769    0.0421   -0.2937 H   0  0  0  0  0  0  0  0  0  0  0  0
   -1.7117   -2.0805    0.0032 H   0  0  0  0  0  0  0  0  0  0  0  0
    0.7511   -2.1289    0.0016 H   0  0  0  0  0  0  0  0  0  0  0  0
  1  2  1  0  0  0  0
  1 14  1  0  0  0  0
  1 15  1  0  0  0  0
  1 16  1  0  0  0  0
  2  3  1  0  0  0  0
  2 13  2  0  0  0  0
  3  4  2  0  0  0  0
  3 17  1  0  0  0  0
  4  5  1  0  0  0  0
  4 18  1  0  0  0  0
  5  6  1  0  0  0  0
  5 12  2  0  0  0  0
  6  7  1  0  0  0  0
  7  8  1  0  0  0  0
  7 19  1  0  0  0  0
  7 20  1  0  0  0  0
  8  9  2  0  0  0  0
  8 10  1  0  0  0  0
 10 11  1  0  0  0  0
 10 21  1  0  0  0  0
 11 22  1  0  0  0  0
 12 13  1  0  0  0  0
 12 23  1  0  0  0  0
 13 24  1  0  0  0  0
M  END
>  <Line_Number>
251


> <IC50>
57100

$$$$
