145984816.0
 OpenBabel09302502333D

 24 24  0  0  0  0  0  0  0  0999 V2000
    1.0391   -0.2296   -0.0715 O   0  0  0  0  0  0  0  0  0  0  0  0
    2.2606   -0.1038   -0.0525 C   0  0  0  0  0  0  0  0  0  0  0  0
    3.0004    0.9213    0.7697 C   0  0  0  0  0  0  0  0  0  0  0  0
    2.0373    1.7971    1.5556 C   0  0  0  0  0  0  0  0  0  0  0  0
    2.8049    2.7442    2.3044 O   0  0  0  0  0  0  0  0  0  0  0  0
    2.1055    3.5921    3.1213 C   0  0  0  0  0  0  0  0  0  0  0  0
    0.7129    3.6538    3.2342 C   0  0  0  0  0  0  0  0  0  0  0  0
    0.1127    4.5616    4.1138 C   0  0  0  0  0  0  0  0  0  0  0  0
    0.9019    5.4130    4.8825 C   0  0  0  0  0  0  0  0  0  0  0  0
    2.2846    5.3520    4.7620 C   0  0  0  0  0  0  0  0  0  0  0  0
    3.0452    6.1721    5.4993 F   0  0  0  0  0  0  0  0  0  0  0  0
    2.8905    4.4536    3.8899 C   0  0  0  0  0  0  0  0  0  0  0  0
    3.0882   -0.9066   -0.7961 N   0  0  0  0  0  0  0  0  0  0  0  0
    2.4751   -1.9116   -1.5736 O   0  0  0  0  0  0  0  0  0  0  0  0
    3.6151    1.5409    0.1064 H   0  0  0  0  0  0  0  0  0  0  0  0
    3.6822    0.4057    1.4563 H   0  0  0  0  0  0  0  0  0  0  0  0
    1.4461    1.1711    2.2357 H   0  0  0  0  0  0  0  0  0  0  0  0
    1.3699    2.3235    0.8621 H   0  0  0  0  0  0  0  0  0  0  0  0
    0.0622    3.0096    2.6509 H   0  0  0  0  0  0  0  0  0  0  0  0
   -0.9708    4.6005    4.1959 H   0  0  0  0  0  0  0  0  0  0  0  0
    0.4510    6.1207    5.5704 H   0  0  0  0  0  0  0  0  0  0  0  0
    3.9731    4.4294    3.8177 H   0  0  0  0  0  0  0  0  0  0  0  0
    4.1018   -0.8830   -0.7801 H   0  0  0  0  0  0  0  0  0  0  0  0
    1.5215   -1.7793   -1.3783 H   0  0  0  0  0  0  0  0  0  0  0  0
  1  2  2  0  0  0  0
  2  3  1  0  0  0  0
  2 13  1  0  0  0  0
  3  4  1  0  0  0  0
  3 15  1  0  0  0  0
  3 16  1  0  0  0  0
  4  5  1  0  0  0  0
  4 17  1  0  0  0  0
  4 18  1  0  0  0  0
  5  6  1  0  0  0  0
  6  7  1  0  0  0  0
  6 12  2  0  0  0  0
  7  8  2  0  0  0  0
  7 19  1  0  0  0  0
  8  9  1  0  0  0  0
  8 20  1  0  0  0  0
  9 10  2  0  0  0  0
  9 21  1  0  0  0  0
 10 11  1  0  0  0  0
 10 12  1  0  0  0  0
 12 22  1  0  0  0  0
 13 14  1  0  0  0  0
 13 23  1  0  0  0  0
 14 24  1  0  0  0  0
M  END
>  <Line_Number>
252


> <IC50>
2050

$$$$
