24990996.0
 OpenBabel09302502333D

 21 21  0  0  0  0  0  0  0  0999 V2000
    1.2566   -0.5873   -2.2539 O   0  0  0  0  0  0  0  0  0  0  0  0
    1.7428   -0.8264   -1.1482 C   0  0  0  0  0  0  0  0  0  0  0  0
    1.6192   -2.1832   -0.4656 C   0  0  0  0  0  0  0  0  0  0  0  0
    2.2704   -2.1755    0.8047 O   0  0  0  0  0  0  0  0  0  0  0  0
    2.5560   -3.4052    1.3299 C   0  0  0  0  0  0  0  0  0  0  0  0
    3.6040   -3.4276    2.2563 C   0  0  0  0  0  0  0  0  0  0  0  0
    4.0026   -4.6295    2.8391 C   0  0  0  0  0  0  0  0  0  0  0  0
    3.3405   -5.8032    2.5014 C   0  0  0  0  0  0  0  0  0  0  0  0
    3.7288   -6.9617    3.0491 F   0  0  0  0  0  0  0  0  0  0  0  0
    2.2773   -5.7914    1.6061 C   0  0  0  0  0  0  0  0  0  0  0  0
    1.8774   -4.5875    1.0218 C   0  0  0  0  0  0  0  0  0  0  0  0
    2.4464    0.1133   -0.4437 N   0  0  0  0  0  0  0  0  0  0  0  0
    2.5417    1.4064   -0.9958 O   0  0  0  0  0  0  0  0  0  0  0  0
    2.0780   -2.9178   -1.1387 H   0  0  0  0  0  0  0  0  0  0  0  0
    0.5523   -2.3877   -0.3297 H   0  0  0  0  0  0  0  0  0  0  0  0
    4.1222   -2.5065    2.5146 H   0  0  0  0  0  0  0  0  0  0  0  0
    4.8250   -4.6590    3.5471 H   0  0  0  0  0  0  0  0  0  0  0  0
    1.7675   -6.7204    1.3675 H   0  0  0  0  0  0  0  0  0  0  0  0
    1.0330   -4.6023    0.3407 H   0  0  0  0  0  0  0  0  0  0  0  0
    2.7474   -0.0268    0.5167 H   0  0  0  0  0  0  0  0  0  0  0  0
    2.0513    1.3106   -1.8413 H   0  0  0  0  0  0  0  0  0  0  0  0
  1  2  2  0  0  0  0
  2  3  1  0  0  0  0
  2 12  1  0  0  0  0
  3  4  1  0  0  0  0
  3 14  1  0  0  0  0
  3 15  1  0  0  0  0
  4  5  1  0  0  0  0
  5  6  1  0  0  0  0
  5 11  2  0  0  0  0
  6  7  2  0  0  0  0
  6 16  1  0  0  0  0
  7  8  1  0  0  0  0
  7 17  1  0  0  0  0
  8  9  1  0  0  0  0
  8 10  2  0  0  0  0
 10 11  1  0  0  0  0
 10 18  1  0  0  0  0
 11 19  1  0  0  0  0
 12 13  1  0  0  0  0
 12 20  1  0  0  0  0
 13 21  1  0  0  0  0
M  END
>  <Line_Number>
253


> <IC50>
18900

$$$$
