130841018.0
 OpenBabel09302502333D

 21 21  0  0  0  0  0  0  0  0999 V2000
    2.2969    1.3348    0.5730 O   0  0  0  0  0  0  0  0  0  0  0  0
    1.9115    0.1631    0.5481 C   0  0  0  0  0  0  0  0  0  0  0  0
    2.5797   -0.9496    1.3504 C   0  0  0  0  0  0  0  0  0  0  0  0
    1.9795   -2.2088    1.0535 O   0  0  0  0  0  0  0  0  0  0  0  0
    2.4416   -3.3021    1.7313 C   0  0  0  0  0  0  0  0  0  0  0  0
    3.5084   -3.3195    2.6333 C   0  0  0  0  0  0  0  0  0  0  0  0
    3.8776   -4.5129    3.2654 C   0  0  0  0  0  0  0  0  0  0  0  0
    3.1825   -5.6899    2.9980 C   0  0  0  0  0  0  0  0  0  0  0  0
    2.1286   -5.6670    2.0943 C   0  0  0  0  0  0  0  0  0  0  0  0
    1.4579   -6.7976    1.8327 F   0  0  0  0  0  0  0  0  0  0  0  0
    1.7539   -4.4877    1.4613 C   0  0  0  0  0  0  0  0  0  0  0  0
    0.8416   -0.2356   -0.2078 N   0  0  0  0  0  0  0  0  0  0  0  0
    0.2191    0.7176   -1.0390 O   0  0  0  0  0  0  0  0  0  0  0  0
    2.4575   -0.7067    2.4113 H   0  0  0  0  0  0  0  0  0  0  0  0
    3.6380   -0.9596    1.0650 H   0  0  0  0  0  0  0  0  0  0  0  0
    4.0777   -2.4252    2.8669 H   0  0  0  0  0  0  0  0  0  0  0  0
    4.7076   -4.5215    3.9680 H   0  0  0  0  0  0  0  0  0  0  0  0
    3.4557   -6.6222    3.4833 H   0  0  0  0  0  0  0  0  0  0  0  0
    0.9253   -4.5031    0.7608 H   0  0  0  0  0  0  0  0  0  0  0  0
    0.5779   -1.2116   -0.3100 H   0  0  0  0  0  0  0  0  0  0  0  0
    0.7834    1.5101   -0.9153 H   0  0  0  0  0  0  0  0  0  0  0  0
  1  2  2  0  0  0  0
  2  3  1  0  0  0  0
  2 12  1  0  0  0  0
  3  4  1  0  0  0  0
  3 14  1  0  0  0  0
  3 15  1  0  0  0  0
  4  5  1  0  0  0  0
  5  6  1  0  0  0  0
  5 11  2  0  0  0  0
  6  7  2  0  0  0  0
  6 16  1  0  0  0  0
  7  8  1  0  0  0  0
  7 17  1  0  0  0  0
  8  9  2  0  0  0  0
  8 18  1  0  0  0  0
  9 10  1  0  0  0  0
  9 11  1  0  0  0  0
 11 19  1  0  0  0  0
 12 13  1  0  0  0  0
 12 20  1  0  0  0  0
 13 21  1  0  0  0  0
M  END
>  <Line_Number>
254


> <IC50>
27000

$$$$
