145985598.0
 OpenBabel09302502333D

 24 24  0  0  0  0  0  0  0  0999 V2000
    1.0973   -0.1097    0.0621 O   0  0  0  0  0  0  0  0  0  0  0  0
    2.3191   -0.0465   -0.0351 C   0  0  0  0  0  0  0  0  0  0  0  0
    3.0512    0.8653   -0.9894 C   0  0  0  0  0  0  0  0  0  0  0  0
    2.0666    1.7164   -1.7764 C   0  0  0  0  0  0  0  0  0  0  0  0
    2.7945    2.5678   -2.6682 O   0  0  0  0  0  0  0  0  0  0  0  0
    2.0436    3.4278   -3.4277 C   0  0  0  0  0  0  0  0  0  0  0  0
    0.6490    3.5057   -3.4267 C   0  0  0  0  0  0  0  0  0  0  0  0
    0.0054    4.4316   -4.2455 C   0  0  0  0  0  0  0  0  0  0  0  0
   -1.3324    4.4968   -4.2303 F   0  0  0  0  0  0  0  0  0  0  0  0
    0.7200    5.2851   -5.0710 C   0  0  0  0  0  0  0  0  0  0  0  0
    2.1039    5.1998   -5.0704 C   0  0  0  0  0  0  0  0  0  0  0  0
    2.8119    6.0162   -5.8623 F   0  0  0  0  0  0  0  0  0  0  0  0
    2.7705    4.2818   -4.2603 C   0  0  0  0  0  0  0  0  0  0  0  0
    3.1497   -0.8190    0.7366 N   0  0  0  0  0  0  0  0  0  0  0  0
    2.5277   -1.7345    1.6135 O   0  0  0  0  0  0  0  0  0  0  0  0
    3.6577    0.2608   -1.6735 H   0  0  0  0  0  0  0  0  0  0  0  0
    3.7369    1.5074   -0.4247 H   0  0  0  0  0  0  0  0  0  0  0  0
    1.4779    2.3258   -1.0790 H   0  0  0  0  0  0  0  0  0  0  0  0
    1.3993    1.0628   -2.3521 H   0  0  0  0  0  0  0  0  0  0  0  0
    0.0269    2.8694   -2.8077 H   0  0  0  0  0  0  0  0  0  0  0  0
    0.2073    6.0010   -5.7016 H   0  0  0  0  0  0  0  0  0  0  0  0
    3.8551    4.2420   -4.2843 H   0  0  0  0  0  0  0  0  0  0  0  0
    4.1544   -0.8959    0.6218 H   0  0  0  0  0  0  0  0  0  0  0  0
    1.5724   -1.5704    1.4505 H   0  0  0  0  0  0  0  0  0  0  0  0
  1  2  2  0  0  0  0
  2  3  1  0  0  0  0
  2 14  1  0  0  0  0
  3  4  1  0  0  0  0
  3 16  1  0  0  0  0
  3 17  1  0  0  0  0
  4  5  1  0  0  0  0
  4 18  1  0  0  0  0
  4 19  1  0  0  0  0
  5  6  1  0  0  0  0
  6  7  1  0  0  0  0
  6 13  2  0  0  0  0
  7  8  2  0  0  0  0
  7 20  1  0  0  0  0
  8  9  1  0  0  0  0
  8 10  1  0  0  0  0
 10 11  2  0  0  0  0
 10 21  1  0  0  0  0
 11 12  1  0  0  0  0
 11 13  1  0  0  0  0
 13 22  1  0  0  0  0
 14 15  1  0  0  0  0
 14 23  1  0  0  0  0
 15 24  1  0  0  0  0
M  END
>  <Line_Number>
255


> <IC50>
5090

$$$$
