145984444.0
 OpenBabel09302502333D

 23 23  0  0  0  0  0  0  0  0999 V2000
    1.2029    2.1529   -0.7729 O   0  0  0  0  0  0  0  0  0  0  0  0
    1.7107    1.0397   -0.9066 C   0  0  0  0  0  0  0  0  0  0  0  0
    1.6492    0.2542   -2.2098 C   0  0  0  0  0  0  0  0  0  0  0  0
    2.2783   -1.0215   -2.0778 O   0  0  0  0  0  0  0  0  0  0  0  0
    2.5993   -1.6430   -3.2543 C   0  0  0  0  0  0  0  0  0  0  0  0
    3.6335   -2.5807   -3.1752 C   0  0  0  0  0  0  0  0  0  0  0  0
    4.0747   -3.2526   -4.3183 C   0  0  0  0  0  0  0  0  0  0  0  0
    3.4723   -3.0013   -5.5501 C   0  0  0  0  0  0  0  0  0  0  0  0
    2.4134   -2.0858   -5.6209 C   0  0  0  0  0  0  0  0  0  0  0  0
    1.7652   -1.8206   -6.9115 N   0  3  0  0  0  0  0  0  0  0  0  0
    2.1798   -2.4352   -7.9029 O   0  0  0  0  0  0  0  0  0  0  0  0
    0.8415   -0.9942   -6.9306 O   0  5  0  0  0  0  0  0  0  0  0  0
    1.9668   -1.4124   -4.4754 C   0  0  0  0  0  0  0  0  0  0  0  0
    2.3850    0.4188    0.1113 N   0  0  0  0  0  0  0  0  0  0  0  0
    2.3808    1.0579    1.3686 O   0  0  0  0  0  0  0  0  0  0  0  0
    2.1527    0.8630   -2.9694 H   0  0  0  0  0  0  0  0  0  0  0  0
    0.5899    0.1147   -2.4564 H   0  0  0  0  0  0  0  0  0  0  0  0
    4.1141   -2.7799   -2.2193 H   0  0  0  0  0  0  0  0  0  0  0  0
    4.8934   -3.9659   -4.2460 H   0  0  0  0  0  0  0  0  0  0  0  0
    3.8332   -3.5221   -6.4357 H   0  0  0  0  0  0  0  0  0  0  0  0
    1.1300   -0.7234   -4.5476 H   0  0  0  0  0  0  0  0  0  0  0  0
    2.6439   -0.5629    0.0733 H   0  0  0  0  0  0  0  0  0  0  0  0
    1.8557    1.8688    1.1922 H   0  0  0  0  0  0  0  0  0  0  0  0
  1  2  2  0  0  0  0
  2  3  1  0  0  0  0
  2 14  1  0  0  0  0
  3  4  1  0  0  0  0
  3 16  1  0  0  0  0
  3 17  1  0  0  0  0
  4  5  1  0  0  0  0
  5  6  1  0  0  0  0
  5 13  2  0  0  0  0
  6  7  2  0  0  0  0
  6 18  1  0  0  0  0
  7  8  1  0  0  0  0
  7 19  1  0  0  0  0
  8  9  2  0  0  0  0
  8 20  1  0  0  0  0
  9 10  1  0  0  0  0
  9 13  1  0  0  0  0
 10 11  2  0  0  0  0
 10 12  1  0  0  0  0
 13 21  1  0  0  0  0
 14 15  1  0  0  0  0
 14 22  1  0  0  0  0
 15 23  1  0  0  0  0
M  CHG  2  10   1  12  -1
M  END
>  <Line_Number>
256


> <IC50>
94700

$$$$
