15125023.0
 OpenBabel09302502333D

 25 25  0  0  0  0  0  0  0  0999 V2000
    1.2438   -0.0337    0.7164 C   0  0  0  0  0  0  0  0  0  0  0  0
    2.3945    0.0631   -0.1152 O   0  0  0  0  0  0  0  0  0  0  0  0
    3.0230    1.2771   -0.1481 C   0  0  0  0  0  0  0  0  0  0  0  0
    2.6111    2.4267    0.5290 C   0  0  0  0  0  0  0  0  0  0  0  0
    3.3476    3.6138    0.4290 C   0  0  0  0  0  0  0  0  0  0  0  0
    4.5017    3.6577   -0.3514 C   0  0  0  0  0  0  0  0  0  0  0  0
    5.2778    4.7636   -0.5530 O   0  0  0  0  0  0  0  0  0  0  0  0
    5.3318    5.6958    0.5254 C   0  0  0  0  0  0  0  0  0  0  0  0
    6.2677    6.8524    0.1873 C   0  0  0  0  0  0  0  0  0  0  0  0
    6.4840    7.7848    0.9592 O   0  0  0  0  0  0  0  0  0  0  0  0
    6.8423    6.7888   -1.0542 N   0  0  0  0  0  0  0  0  0  0  0  0
    7.7146    7.8310   -1.4274 O   0  0  0  0  0  0  0  0  0  0  0  0
    4.9015    2.5157   -1.0461 C   0  0  0  0  0  0  0  0  0  0  0  0
    4.1699    1.3306   -0.9381 C   0  0  0  0  0  0  0  0  0  0  0  0
    0.8945   -1.0699    0.6920 H   0  0  0  0  0  0  0  0  0  0  0  0
    0.4360    0.6020    0.3385 H   0  0  0  0  0  0  0  0  0  0  0  0
    1.4837    0.2100    1.7572 H   0  0  0  0  0  0  0  0  0  0  0  0
    1.7144    2.4372    1.1391 H   0  0  0  0  0  0  0  0  0  0  0  0
    2.9754    4.4853    0.9554 H   0  0  0  0  0  0  0  0  0  0  0  0
    5.7221    5.2047    1.4244 H   0  0  0  0  0  0  0  0  0  0  0  0
    4.3493    6.1391    0.7134 H   0  0  0  0  0  0  0  0  0  0  0  0
    6.7183    6.0060   -1.6900 H   0  0  0  0  0  0  0  0  0  0  0  0
    7.6840    8.4202   -0.6427 H   0  0  0  0  0  0  0  0  0  0  0  0
    5.7941    2.5410   -1.6662 H   0  0  0  0  0  0  0  0  0  0  0  0
    4.5007    0.4439   -1.4749 H   0  0  0  0  0  0  0  0  0  0  0  0
  1  2  1  0  0  0  0
  1 15  1  0  0  0  0
  1 16  1  0  0  0  0
  1 17  1  0  0  0  0
  2  3  1  0  0  0  0
  3  4  1  0  0  0  0
  3 14  2  0  0  0  0
  4  5  2  0  0  0  0
  4 18  1  0  0  0  0
  5  6  1  0  0  0  0
  5 19  1  0  0  0  0
  6  7  1  0  0  0  0
  6 13  2  0  0  0  0
  7  8  1  0  0  0  0
  8  9  1  0  0  0  0
  8 20  1  0  0  0  0
  8 21  1  0  0  0  0
  9 10  2  0  0  0  0
  9 11  1  0  0  0  0
 11 12  1  0  0  0  0
 11 22  1  0  0  0  0
 12 23  1  0  0  0  0
 13 14  1  0  0  0  0
 13 24  1  0  0  0  0
 14 25  1  0  0  0  0
M  END
>  <Line_Number>
257


> <IC50>
49500

$$$$
