95562485.0
 OpenBabel09302502333D

 23 23  0  0  0  0  0  0  0  0999 V2000
    2.9270   -0.8300   -0.7627 O   0  0  0  0  0  0  0  0  0  0  0  0
    2.3386   -0.2872    0.1711 C   0  0  0  0  0  0  0  0  0  0  0  0
    3.0352    0.6314    1.1732 C   0  0  0  0  0  0  0  0  0  0  0  0
    2.1190    1.0255    2.1933 O   0  0  0  0  0  0  0  0  0  0  0  0
    2.6020    1.8239    3.1894 C   0  0  0  0  0  0  0  0  0  0  0  0
    3.6717    2.7138    3.0757 C   0  0  0  0  0  0  0  0  0  0  0  0
    4.0301    3.5213    4.1631 C   0  0  0  0  0  0  0  0  0  0  0  0
    3.3144    3.4299    5.3651 C   0  0  0  0  0  0  0  0  0  0  0  0
    3.6818    4.2801    6.5024 N   0  3  0  0  0  0  0  0  0  0  0  0
    4.6285    5.0675    6.3517 O   0  0  0  0  0  0  0  0  0  0  0  0
    3.0229    4.1649    7.5471 O   0  5  0  0  0  0  0  0  0  0  0  0
    2.2427    2.5394    5.4841 C   0  0  0  0  0  0  0  0  0  0  0  0
    1.8885    1.7474    4.3906 C   0  0  0  0  0  0  0  0  0  0  0  0
    0.9938   -0.4494    0.3784 N   0  0  0  0  0  0  0  0  0  0  0  0
    0.2910   -1.3118   -0.4856 O   0  0  0  0  0  0  0  0  0  0  0  0
    3.3983    1.4970    0.6104 H   0  0  0  0  0  0  0  0  0  0  0  0
    3.8657    0.0701    1.6173 H   0  0  0  0  0  0  0  0  0  0  0  0
    4.2289    2.8266    2.1506 H   0  0  0  0  0  0  0  0  0  0  0  0
    4.8572    4.2208    4.0539 H   0  0  0  0  0  0  0  0  0  0  0  0
    1.6731    2.4545    6.4076 H   0  0  0  0  0  0  0  0  0  0  0  0
    1.0487    1.0609    4.4774 H   0  0  0  0  0  0  0  0  0  0  0  0
    0.5044   -0.0654    1.1818 H   0  0  0  0  0  0  0  0  0  0  0  0
    0.9971   -1.6289   -1.0892 H   0  0  0  0  0  0  0  0  0  0  0  0
  1  2  2  0  0  0  0
  2  3  1  0  0  0  0
  2 14  1  0  0  0  0
  3  4  1  0  0  0  0
  3 16  1  0  0  0  0
  3 17  1  0  0  0  0
  4  5  1  0  0  0  0
  5  6  1  0  0  0  0
  5 13  2  0  0  0  0
  6  7  2  0  0  0  0
  6 18  1  0  0  0  0
  7  8  1  0  0  0  0
  7 19  1  0  0  0  0
  8  9  1  0  0  0  0
  8 12  2  0  0  0  0
  9 10  2  0  0  0  0
  9 11  1  0  0  0  0
 12 13  1  0  0  0  0
 12 20  1  0  0  0  0
 13 21  1  0  0  0  0
 14 15  1  0  0  0  0
 14 22  1  0  0  0  0
 15 23  1  0  0  0  0
M  CHG  2   9   1  11  -1
M  END
>  <Line_Number>
258


> <IC50>
62100

$$$$
