130842494.0
 OpenBabel09302502333D

 24 24  0  0  0  0  0  0  0  0999 V2000
    2.4515   -0.0469   -0.0040 C   0  0  0  0  0  0  0  0  0  0  0  0
    0.9529   -0.0136   -0.0047 C   0  0  0  0  0  0  0  0  0  0  0  0
    0.2572    1.2000   -0.0150 C   0  0  0  0  0  0  0  0  0  0  0  0
   -1.1375    1.2094   -0.0220 C   0  0  0  0  0  0  0  0  0  0  0  0
   -1.8534    0.0096   -0.0265 C   0  0  0  0  0  0  0  0  0  0  0  0
   -1.1715   -1.2060   -0.0219 C   0  0  0  0  0  0  0  0  0  0  0  0
   -1.7569   -2.4411    0.0157 O   0  0  0  0  0  0  0  0  0  0  0  0
   -3.0351   -2.5467   -0.6075 C   0  0  0  0  0  0  0  0  0  0  0  0
   -3.5425   -3.9844   -0.5498 C   0  0  0  0  0  0  0  0  0  0  0  0
   -4.6219   -4.3335   -1.0289 O   0  0  0  0  0  0  0  0  0  0  0  0
   -2.7136   -4.8674    0.0887 N   0  0  0  0  0  0  0  0  0  0  0  0
   -3.1479   -6.2017    0.2152 O   0  0  0  0  0  0  0  0  0  0  0  0
    0.2260   -1.2119    0.0028 C   0  0  0  0  0  0  0  0  0  0  0  0
    2.8764    0.9620    0.0156 H   0  0  0  0  0  0  0  0  0  0  0  0
    2.8161   -0.5478   -0.9066 H   0  0  0  0  0  0  0  0  0  0  0  0
    2.8173   -0.5822    0.8780 H   0  0  0  0  0  0  0  0  0  0  0  0
    0.7954    2.1441   -0.0136 H   0  0  0  0  0  0  0  0  0  0  0  0
   -1.6697    2.1577   -0.0159 H   0  0  0  0  0  0  0  0  0  0  0  0
   -2.9365    0.0623   -0.0080 H   0  0  0  0  0  0  0  0  0  0  0  0
   -2.9616   -2.2635   -1.6644 H   0  0  0  0  0  0  0  0  0  0  0  0
   -3.7788   -1.9359   -0.0859 H   0  0  0  0  0  0  0  0  0  0  0  0
   -1.8443   -4.5929    0.5380 H   0  0  0  0  0  0  0  0  0  0  0  0
   -4.0216   -6.1809   -0.2326 H   0  0  0  0  0  0  0  0  0  0  0  0
    0.7542   -2.1622    0.0175 H   0  0  0  0  0  0  0  0  0  0  0  0
  1  2  1  0  0  0  0
  1 14  1  0  0  0  0
  1 15  1  0  0  0  0
  1 16  1  0  0  0  0
  2  3  1  0  0  0  0
  2 13  2  0  0  0  0
  3  4  2  0  0  0  0
  3 17  1  0  0  0  0
  4  5  1  0  0  0  0
  4 18  1  0  0  0  0
  5  6  2  0  0  0  0
  5 19  1  0  0  0  0
  6  7  1  0  0  0  0
  6 13  1  0  0  0  0
  7  8  1  0  0  0  0
  8  9  1  0  0  0  0
  8 20  1  0  0  0  0
  8 21  1  0  0  0  0
  9 10  2  0  0  0  0
  9 11  1  0  0  0  0
 11 12  1  0  0  0  0
 11 22  1  0  0  0  0
 12 23  1  0  0  0  0
 13 24  1  0  0  0  0
M  END
>  <Line_Number>
259


> <IC50>
85100

$$$$
