49844559.0
 OpenBabel09302502333D

 30 31  0  0  0  0  0  0  0  0999 V2000
    1.7431   -1.4243    0.0955 O   0  0  0  0  0  0  0  0  0  0  0  0
    0.5534   -0.7538    0.0682 C   0  0  0  0  0  0  0  0  0  0  0  0
   -0.5520   -1.3083   -0.5685 C   0  0  0  0  0  0  0  0  0  0  0  0
   -1.7643   -0.6097   -0.5915 C   0  0  0  0  0  0  0  0  0  0  0  0
   -1.8928    0.6397    0.0355 C   0  0  0  0  0  0  0  0  0  0  0  0
   -3.1793    1.4423    0.0006 C   0  0  0  0  0  0  0  0  0  0  0  0
   -4.4708    0.6128    0.0064 C   0  0  0  0  0  0  0  0  0  0  0  0
   -5.7159    1.4674   -0.0234 C   0  0  0  0  0  0  0  0  0  0  0  0
   -6.3449    1.8625    1.1651 C   0  0  0  0  0  0  0  0  0  0  0  0
   -7.5145    2.6264    1.1280 C   0  0  0  0  0  0  0  0  0  0  0  0
   -8.0633    3.0075   -0.0964 C   0  0  0  0  0  0  0  0  0  0  0  0
   -7.4359    2.6287   -1.2805 C   0  0  0  0  0  0  0  0  0  0  0  0
   -8.1132    3.0919   -2.7934 Cl  0  0  0  0  0  0  0  0  0  0  0  0
   -6.2670    1.8680   -1.2499 C   0  0  0  0  0  0  0  0  0  0  0  0
   -0.7579    1.1932    0.6566 C   0  0  0  0  0  0  0  0  0  0  0  0
    0.4522    0.4961    0.6743 C   0  0  0  0  0  0  0  0  0  0  0  0
    1.5518    1.0344    1.2830 O   0  0  0  0  0  0  0  0  0  0  0  0
    1.6418   -2.2693   -0.3662 H   0  0  0  0  0  0  0  0  0  0  0  0
   -0.4908   -2.2757   -1.0572 H   0  0  0  0  0  0  0  0  0  0  0  0
   -2.6003   -1.0641   -1.1163 H   0  0  0  0  0  0  0  0  0  0  0  0
   -3.1493    2.0859   -0.8877 H   0  0  0  0  0  0  0  0  0  0  0  0
   -3.1988    2.1117    0.8719 H   0  0  0  0  0  0  0  0  0  0  0  0
   -4.4963   -0.0407    0.8881 H   0  0  0  0  0  0  0  0  0  0  0  0
   -4.5074   -0.0574   -0.8608 H   0  0  0  0  0  0  0  0  0  0  0  0
   -5.9352    1.5669    2.1291 H   0  0  0  0  0  0  0  0  0  0  0  0
   -8.0025    2.9186    2.0546 H   0  0  0  0  0  0  0  0  0  0  0  0
   -8.9776    3.5943   -0.1206 H   0  0  0  0  0  0  0  0  0  0  0  0
   -5.7920    1.5750   -2.1835 H   0  0  0  0  0  0  0  0  0  0  0  0
   -0.8270    2.1730    1.1225 H   0  0  0  0  0  0  0  0  0  0  0  0
    1.3225    1.9060    1.6373 H   0  0  0  0  0  0  0  0  0  0  0  0
  1  2  1  0  0  0  0
  1 18  1  0  0  0  0
  2  3  1  0  0  0  0
  2 16  2  0  0  0  0
  3  4  2  0  0  0  0
  3 19  1  0  0  0  0
  4  5  1  0  0  0  0
  4 20  1  0  0  0  0
  5  6  1  0  0  0  0
  5 15  2  0  0  0  0
  6  7  1  0  0  0  0
  6 21  1  0  0  0  0
  6 22  1  0  0  0  0
  7  8  1  0  0  0  0
  7 23  1  0  0  0  0
  7 24  1  0  0  0  0
  8  9  1  0  0  0  0
  8 14  2  0  0  0  0
  9 10  2  0  0  0  0
  9 25  1  0  0  0  0
 10 11  1  0  0  0  0
 10 26  1  0  0  0  0
 11 12  2  0  0  0  0
 11 27  1  0  0  0  0
 12 13  1  0  0  0  0
 12 14  1  0  0  0  0
 14 28  1  0  0  0  0
 15 16  1  0  0  0  0
 15 29  1  0  0  0  0
 16 17  1  0  0  0  0
 17 30  1  0  0  0  0
M  END
>  <Line_Number>
25


> <IC50>
55200

$$$$
