239786.0
 OpenBabel09302502333D

 21 21  0  0  0  0  0  0  0  0999 V2000
    0.9348    1.9069    0.7430 O   0  0  0  0  0  0  0  0  0  0  0  0
    0.9997    0.7574    1.1845 C   0  0  0  0  0  0  0  0  0  0  0  0
    2.1081    0.2879    2.1182 C   0  0  0  0  0  0  0  0  0  0  0  0
    2.0903   -1.1362    2.2229 O   0  0  0  0  0  0  0  0  0  0  0  0
    2.5244   -1.6471    3.4155 C   0  0  0  0  0  0  0  0  0  0  0  0
    3.5978   -1.1085    4.1283 C   0  0  0  0  0  0  0  0  0  0  0  0
    3.9933   -1.6886    5.3378 C   0  0  0  0  0  0  0  0  0  0  0  0
    3.3250   -2.8125    5.8248 C   0  0  0  0  0  0  0  0  0  0  0  0
    3.8096   -3.5091    7.3234 Cl  0  0  0  0  0  0  0  0  0  0  0  0
    2.2751   -3.3755    5.1101 C   0  0  0  0  0  0  0  0  0  0  0  0
    1.8819   -2.7976    3.9022 C   0  0  0  0  0  0  0  0  0  0  0  0
    0.5684   -3.5147    3.0371 Cl  0  0  0  0  0  0  0  0  0  0  0  0
    0.0505   -0.1913    0.8962 N   0  0  0  0  0  0  0  0  0  0  0  0
   -0.9376    0.1417   -0.0542 O   0  0  0  0  0  0  0  0  0  0  0  0
    1.9465    0.7786    3.0845 H   0  0  0  0  0  0  0  0  0  0  0  0
    3.0650    0.5953    1.6830 H   0  0  0  0  0  0  0  0  0  0  0  0
    4.1499   -0.2494    3.7577 H   0  0  0  0  0  0  0  0  0  0  0  0
    4.8244   -1.2602    5.8960 H   0  0  0  0  0  0  0  0  0  0  0  0
    1.7629   -4.2546    5.4890 H   0  0  0  0  0  0  0  0  0  0  0  0
    0.1891   -1.1774    1.1087 H   0  0  0  0  0  0  0  0  0  0  0  0
   -0.6417    1.0202   -0.3744 H   0  0  0  0  0  0  0  0  0  0  0  0
  1  2  2  0  0  0  0
  2  3  1  0  0  0  0
  2 13  1  0  0  0  0
  3  4  1  0  0  0  0
  3 15  1  0  0  0  0
  3 16  1  0  0  0  0
  4  5  1  0  0  0  0
  5  6  1  0  0  0  0
  5 11  2  0  0  0  0
  6  7  2  0  0  0  0
  6 17  1  0  0  0  0
  7  8  1  0  0  0  0
  7 18  1  0  0  0  0
  8  9  1  0  0  0  0
  8 10  2  0  0  0  0
 10 11  1  0  0  0  0
 10 19  1  0  0  0  0
 11 12  1  0  0  0  0
 13 14  1  0  0  0  0
 13 20  1  0  0  0  0
 14 21  1  0  0  0  0
M  END
>  <Line_Number>
260


> <IC50>
830

$$$$
