145982738.0
 OpenBabel09302502333D

 21 21  0  0  0  0  0  0  0  0999 V2000
    2.3341    1.4717    0.5970 O   0  0  0  0  0  0  0  0  0  0  0  0
    1.9299    0.3100    0.5948 C   0  0  0  0  0  0  0  0  0  0  0  0
    2.6041   -0.8048    1.3925 C   0  0  0  0  0  0  0  0  0  0  0  0
    2.0155   -2.0661    1.0921 O   0  0  0  0  0  0  0  0  0  0  0  0
    2.4471   -3.1672    1.7851 C   0  0  0  0  0  0  0  0  0  0  0  0
    3.5195   -3.1554    2.6862 C   0  0  0  0  0  0  0  0  0  0  0  0
    3.8920   -4.3243    3.3542 C   0  0  0  0  0  0  0  0  0  0  0  0
    3.1949   -5.5087    3.1374 C   0  0  0  0  0  0  0  0  0  0  0  0
    2.1256   -5.5378    2.2375 C   0  0  0  0  0  0  0  0  0  0  0  0
    1.3100   -7.0483    2.0220 Cl  0  0  0  0  0  0  0  0  0  0  0  0
    1.7525   -4.3692    1.5564 C   0  0  0  0  0  0  0  0  0  0  0  0
    0.4338   -4.3870    0.4204 Cl  0  0  0  0  0  0  0  0  0  0  0  0
    0.8309   -0.0826   -0.1233 N   0  0  0  0  0  0  0  0  0  0  0  0
    0.2180    0.8748   -0.9581 O   0  0  0  0  0  0  0  0  0  0  0  0
    2.4817   -0.5641    2.4534 H   0  0  0  0  0  0  0  0  0  0  0  0
    3.6623   -0.8098    1.1049 H   0  0  0  0  0  0  0  0  0  0  0  0
    4.0953   -2.2574    2.8848 H   0  0  0  0  0  0  0  0  0  0  0  0
    4.7280   -4.3071    4.0519 H   0  0  0  0  0  0  0  0  0  0  0  0
    3.4902   -6.4106    3.6692 H   0  0  0  0  0  0  0  0  0  0  0  0
    0.5608   -1.0590   -0.2350 H   0  0  0  0  0  0  0  0  0  0  0  0
    0.8121    1.6497   -0.8653 H   0  0  0  0  0  0  0  0  0  0  0  0
  1  2  2  0  0  0  0
  2  3  1  0  0  0  0
  2 13  1  0  0  0  0
  3  4  1  0  0  0  0
  3 15  1  0  0  0  0
  3 16  1  0  0  0  0
  4  5  1  0  0  0  0
  5  6  1  0  0  0  0
  5 11  2  0  0  0  0
  6  7  2  0  0  0  0
  6 17  1  0  0  0  0
  7  8  1  0  0  0  0
  7 18  1  0  0  0  0
  8  9  2  0  0  0  0
  8 19  1  0  0  0  0
  9 10  1  0  0  0  0
  9 11  1  0  0  0  0
 11 12  1  0  0  0  0
 13 14  1  0  0  0  0
 13 20  1  0  0  0  0
 14 21  1  0  0  0  0
M  END
>  <Line_Number>
261


> <IC50>
178700

$$$$
