3598816.0
 OpenBabel09302502333D

 21 21  0  0  0  0  0  0  0  0999 V2000
    1.2582    0.1372   -2.3557 O   0  0  0  0  0  0  0  0  0  0  0  0
    1.6607   -0.4180   -1.3352 C   0  0  0  0  0  0  0  0  0  0  0  0
    1.5984   -1.9267   -1.1334 C   0  0  0  0  0  0  0  0  0  0  0  0
    2.2041   -2.3112    0.1016 O   0  0  0  0  0  0  0  0  0  0  0  0
    2.5499   -3.6311    0.1970 C   0  0  0  0  0  0  0  0  0  0  0  0
    3.5653   -3.9214    1.1113 C   0  0  0  0  0  0  0  0  0  0  0  0
    4.0280   -5.2314    1.2592 C   0  0  0  0  0  0  0  0  0  0  0  0
    3.4605   -6.2521    0.4997 C   0  0  0  0  0  0  0  0  0  0  0  0
    4.0997   -8.0218    0.6714 Br  0  0  0  0  0  0  0  0  0  0  0  0
    2.4236   -5.9768   -0.3887 C   0  0  0  0  0  0  0  0  0  0  0  0
    1.9617   -4.6661   -0.5340 C   0  0  0  0  0  0  0  0  0  0  0  0
    2.2004    0.2812   -0.2898 N   0  0  0  0  0  0  0  0  0  0  0  0
    2.3166    1.6783   -0.4281 O   0  0  0  0  0  0  0  0  0  0  0  0
    2.1264   -2.3761   -1.9834 H   0  0  0  0  0  0  0  0  0  0  0  0
    0.5417   -2.2155   -1.1303 H   0  0  0  0  0  0  0  0  0  0  0  0
    4.0139   -3.1248    1.7002 H   0  0  0  0  0  0  0  0  0  0  0  0
    4.8319   -5.4417    1.9598 H   0  0  0  0  0  0  0  0  0  0  0  0
    1.9692   -6.7712   -0.9751 H   0  0  0  0  0  0  0  0  0  0  0  0
    1.1415   -4.4857   -1.2217 H   0  0  0  0  0  0  0  0  0  0  0  0
    2.5710   -0.1589    0.5469 H   0  0  0  0  0  0  0  0  0  0  0  0
    1.9373    1.8333   -1.3207 H   0  0  0  0  0  0  0  0  0  0  0  0
  1  2  2  0  0  0  0
  2  3  1  0  0  0  0
  2 12  1  0  0  0  0
  3  4  1  0  0  0  0
  3 14  1  0  0  0  0
  3 15  1  0  0  0  0
  4  5  1  0  0  0  0
  5  6  1  0  0  0  0
  5 11  2  0  0  0  0
  6  7  2  0  0  0  0
  6 16  1  0  0  0  0
  7  8  1  0  0  0  0
  7 17  1  0  0  0  0
  8  9  1  0  0  0  0
  8 10  2  0  0  0  0
 10 11  1  0  0  0  0
 10 18  1  0  0  0  0
 11 19  1  0  0  0  0
 12 13  1  0  0  0  0
 12 20  1  0  0  0  0
 13 21  1  0  0  0  0
M  END
>  <Line_Number>
262


> <IC50>
5350

$$$$
