145953677.0
 OpenBabel09302502333D

 27 27  0  0  0  0  0  0  0  0999 V2000
    0.8899   -0.1335   -0.0069 O   0  0  0  0  0  0  0  0  0  0  0  0
    1.7659    0.6887   -0.2603 C   0  0  0  0  0  0  0  0  0  0  0  0
    2.4657    1.5357    0.7718 C   0  0  0  0  0  0  0  0  0  0  0  0
    1.9216    1.2894    2.1731 C   0  0  0  0  0  0  0  0  0  0  0  0
    2.6122    2.1976    3.0900 N   0  0  0  0  0  0  0  0  0  0  0  0
    2.0042    2.5778    4.2868 C   0  0  0  0  0  0  0  0  0  0  0  0
    1.0310    1.8248    4.9530 C   0  0  0  0  0  0  0  0  0  0  0  0
    0.4595    2.2850    6.1468 C   0  0  0  0  0  0  0  0  0  0  0  0
    0.8729    3.5091    6.6857 C   0  0  0  0  0  0  0  0  0  0  0  0
    0.2479    4.0213    7.9117 N   0  3  0  0  0  0  0  0  0  0  0  0
   -0.6315    3.3291    8.4431 O   0  0  0  0  0  0  0  0  0  0  0  0
    0.6337    5.1180    8.3417 O   0  5  0  0  0  0  0  0  0  0  0  0
    1.8743    4.2538    6.0582 C   0  0  0  0  0  0  0  0  0  0  0  0
    2.4422    3.7730    4.8764 C   0  0  0  0  0  0  0  0  0  0  0  0
    2.2121    0.9109   -1.5400 N   0  0  0  0  0  0  0  0  0  0  0  0
    1.5736    0.1884   -2.5702 O   0  0  0  0  0  0  0  0  0  0  0  0
    2.3357    2.5898    0.4983 H   0  0  0  0  0  0  0  0  0  0  0  0
    3.5384    1.3094    0.7364 H   0  0  0  0  0  0  0  0  0  0  0  0
    2.0839    0.2489    2.4787 H   0  0  0  0  0  0  0  0  0  0  0  0
    0.8411    1.4801    2.1739 H   0  0  0  0  0  0  0  0  0  0  0  0
    3.5805    1.9251    3.2586 H   0  0  0  0  0  0  0  0  0  0  0  0
    0.6997    0.8676    4.5581 H   0  0  0  0  0  0  0  0  0  0  0  0
   -0.3048    1.6832    6.6348 H   0  0  0  0  0  0  0  0  0  0  0  0
    2.2138    5.2060    6.4592 H   0  0  0  0  0  0  0  0  0  0  0  0
    3.2114    4.3627    4.3809 H   0  0  0  0  0  0  0  0  0  0  0  0
    2.8522    1.6469   -1.8178 H   0  0  0  0  0  0  0  0  0  0  0  0
    0.9160   -0.3493   -2.0766 H   0  0  0  0  0  0  0  0  0  0  0  0
  1  2  2  0  0  0  0
  2  3  1  0  0  0  0
  2 15  1  0  0  0  0
  3  4  1  0  0  0  0
  3 17  1  0  0  0  0
  3 18  1  0  0  0  0
  4  5  1  0  0  0  0
  4 19  1  0  0  0  0
  4 20  1  0  0  0  0
  5  6  1  0  0  0  0
  5 21  1  0  0  0  0
  6  7  1  0  0  0  0
  6 14  2  0  0  0  0
  7  8  2  0  0  0  0
  7 22  1  0  0  0  0
  8  9  1  0  0  0  0
  8 23  1  0  0  0  0
  9 10  1  0  0  0  0
  9 13  2  0  0  0  0
 10 11  2  0  0  0  0
 10 12  1  0  0  0  0
 13 14  1  0  0  0  0
 13 24  1  0  0  0  0
 14 25  1  0  0  0  0
 15 16  1  0  0  0  0
 15 26  1  0  0  0  0
 16 27  1  0  0  0  0
M  CHG  2  10   1  12  -1
M  END
>  <Line_Number>
263


> <IC50>
1230

$$$$
