145972714.0
 OpenBabel09302502333D

 25 25  0  0  0  0  0  0  0  0999 V2000
    0.9355   -0.2074    0.0210 O   0  0  0  0  0  0  0  0  0  0  0  0
    2.1435    0.0279    0.0416 C   0  0  0  0  0  0  0  0  0  0  0  0
    2.8980    0.7235   -1.0665 C   0  0  0  0  0  0  0  0  0  0  0  0
    1.9515    1.0713   -2.2084 C   0  0  0  0  0  0  0  0  0  0  0  0
    2.6683    1.7610   -3.2846 N   0  0  0  0  0  0  0  0  0  0  0  0
    1.9244    2.1290   -4.4351 C   0  0  0  0  0  0  0  0  0  0  0  0
    0.5720    2.4990   -4.3457 C   0  0  0  0  0  0  0  0  0  0  0  0
   -0.1475    2.9172   -5.4670 C   0  0  0  0  0  0  0  0  0  0  0  0
    0.4804    3.0071   -6.7035 C   0  0  0  0  0  0  0  0  0  0  0  0
    1.8351    2.6911   -6.8200 C   0  0  0  0  0  0  0  0  0  0  0  0
    2.5501    2.8477   -8.3879 Cl  0  0  0  0  0  0  0  0  0  0  0  0
    2.5600    2.2661   -5.6937 C   0  0  0  0  0  0  0  0  0  0  0  0
    4.2492    1.8628   -5.8263 Cl  0  0  0  0  0  0  0  0  0  0  0  0
    2.9323   -0.3383    1.1027 N   0  0  0  0  0  0  0  0  0  0  0  0
    2.2791   -0.9466    2.1959 O   0  0  0  0  0  0  0  0  0  0  0  0
    3.7020    0.0661   -1.4173 H   0  0  0  0  0  0  0  0  0  0  0  0
    3.3538    1.6349   -0.6621 H   0  0  0  0  0  0  0  0  0  0  0  0
    1.1626    1.7143   -1.8023 H   0  0  0  0  0  0  0  0  0  0  0  0
    1.4847    0.1584   -2.5996 H   0  0  0  0  0  0  0  0  0  0  0  0
    3.5234    1.2806   -3.5770 H   0  0  0  0  0  0  0  0  0  0  0  0
    0.0447    2.4781   -3.3969 H   0  0  0  0  0  0  0  0  0  0  0  0
   -1.1979    3.1809   -5.3652 H   0  0  0  0  0  0  0  0  0  0  0  0
   -0.0891    3.3347   -7.5700 H   0  0  0  0  0  0  0  0  0  0  0  0
    3.9013   -0.0681    1.2320 H   0  0  0  0  0  0  0  0  0  0  0  0
    1.3437   -0.9760    1.8961 H   0  0  0  0  0  0  0  0  0  0  0  0
  1  2  2  0  0  0  0
  2  3  1  0  0  0  0
  2 14  1  0  0  0  0
  3  4  1  0  0  0  0
  3 16  1  0  0  0  0
  3 17  1  0  0  0  0
  4  5  1  0  0  0  0
  4 18  1  0  0  0  0
  4 19  1  0  0  0  0
  5  6  1  0  0  0  0
  5 20  1  0  0  0  0
  6  7  1  0  0  0  0
  6 12  2  0  0  0  0
  7  8  2  0  0  0  0
  7 21  1  0  0  0  0
  8  9  1  0  0  0  0
  8 22  1  0  0  0  0
  9 10  2  0  0  0  0
  9 23  1  0  0  0  0
 10 11  1  0  0  0  0
 10 12  1  0  0  0  0
 12 13  1  0  0  0  0
 14 15  1  0  0  0  0
 14 24  1  0  0  0  0
 15 25  1  0  0  0  0
M  END
>  <Line_Number>
264


> <IC50>
3830

$$$$
