145950756.0
 OpenBabel09302502333D

 22 22  0  0  0  0  0  0  0  0999 V2000
    2.5432   -1.1839    0.3673 O   0  0  0  0  0  0  0  0  0  0  0  0
    2.2334   -0.1012   -0.1285 C   0  0  0  0  0  0  0  0  0  0  0  0
    3.0480    1.1804    0.0699 C   0  0  0  0  0  0  0  0  0  0  0  0
    2.2320    2.3859   -0.1673 N   0  0  0  0  0  0  0  0  0  0  0  0
    2.7716    3.6806    0.0569 C   0  0  0  0  0  0  0  0  0  0  0  0
    4.0911    4.1045   -0.2221 C   0  0  0  0  0  0  0  0  0  0  0  0
    5.3429    3.0889   -0.8509 Cl  0  0  0  0  0  0  0  0  0  0  0  0
    4.4820    5.4445   -0.0390 C   0  0  0  0  0  0  0  0  0  0  0  0
    3.5746    6.4069    0.3882 C   0  0  0  0  0  0  0  0  0  0  0  0
    2.2595    6.0374    0.6324 C   0  0  0  0  0  0  0  0  0  0  0  0
    1.8702    4.7073    0.4619 C   0  0  0  0  0  0  0  0  0  0  0  0
    0.2042    4.3277    0.7889 Cl  0  0  0  0  0  0  0  0  0  0  0  0
    1.1695    0.0302   -0.9886 N   0  0  0  0  0  0  0  0  0  0  0  0
    0.5356   -1.1673   -1.3896 O   0  0  0  0  0  0  0  0  0  0  0  0
    3.8465    1.0887   -0.6657 H   0  0  0  0  0  0  0  0  0  0  0  0
    3.4510    1.1821    1.0876 H   0  0  0  0  0  0  0  0  0  0  0  0
    1.3454    2.3189    0.3464 H   0  0  0  0  0  0  0  0  0  0  0  0
    5.5061    5.7468   -0.2533 H   0  0  0  0  0  0  0  0  0  0  0  0
    3.8907    7.4407    0.5120 H   0  0  0  0  0  0  0  0  0  0  0  0
    1.5419    6.7893    0.9473 H   0  0  0  0  0  0  0  0  0  0  0  0
    1.0867    0.8395   -1.5997 H   0  0  0  0  0  0  0  0  0  0  0  0
    1.0693   -1.8552   -0.9346 H   0  0  0  0  0  0  0  0  0  0  0  0
  1  2  2  0  0  0  0
  2  3  1  0  0  0  0
  2 13  1  0  0  0  0
  3  4  1  0  0  0  0
  3 15  1  0  0  0  0
  3 16  1  0  0  0  0
  4  5  1  0  0  0  0
  4 17  1  0  0  0  0
  5  6  1  0  0  0  0
  5 11  2  0  0  0  0
  6  7  1  0  0  0  0
  6  8  2  0  0  0  0
  8  9  1  0  0  0  0
  8 18  1  0  0  0  0
  9 10  2  0  0  0  0
  9 19  1  0  0  0  0
 10 11  1  0  0  0  0
 10 20  1  0  0  0  0
 11 12  1  0  0  0  0
 13 14  1  0  0  0  0
 13 21  1  0  0  0  0
 14 22  1  0  0  0  0
M  END
>  <Line_Number>
265


> <IC50>
191000

$$$$
