145960261.0
 OpenBabel09302502333D

 30 30  0  0  0  0  0  0  0  0999 V2000
    1.3694    0.1906   -0.5911 C   0  0  0  0  0  0  0  0  0  0  0  0
    2.5556   -0.0569    0.1542 O   0  0  0  0  0  0  0  0  0  0  0  0
    3.1833   -1.2532   -0.0613 C   0  0  0  0  0  0  0  0  0  0  0  0
    2.7341   -2.2800   -0.8962 C   0  0  0  0  0  0  0  0  0  0  0  0
    3.4833   -3.4541   -1.0663 C   0  0  0  0  0  0  0  0  0  0  0  0
    2.9250   -4.4736   -1.8661 N   0  0  0  0  0  0  0  0  0  0  0  0
    3.8660   -5.4329   -2.4821 C   0  0  0  0  0  0  0  0  0  0  0  0
    3.1261   -6.4941   -3.2931 C   0  0  0  0  0  0  0  0  0  0  0  0
    3.6095   -7.5944   -3.5663 O   0  0  0  0  0  0  0  0  0  0  0  0
    1.8728   -6.1264   -3.7111 N   0  0  0  0  0  0  0  0  0  0  0  0
    1.1823   -7.0389   -4.5369 O   0  0  0  0  0  0  0  0  0  0  0  0
    4.6571   -3.6124   -0.3169 C   0  0  0  0  0  0  0  0  0  0  0  0
    5.1190   -2.5970    0.5222 C   0  0  0  0  0  0  0  0  0  0  0  0
    6.2628   -2.6383    1.2713 O   0  0  0  0  0  0  0  0  0  0  0  0
    7.0665   -3.8075    1.1632 C   0  0  0  0  0  0  0  0  0  0  0  0
    4.3774   -1.4218    0.6394 C   0  0  0  0  0  0  0  0  0  0  0  0
    1.0406    1.2101   -0.3673 H   0  0  0  0  0  0  0  0  0  0  0  0
    0.5695   -0.4933   -0.2892 H   0  0  0  0  0  0  0  0  0  0  0  0
    1.5548    0.1323   -1.6689 H   0  0  0  0  0  0  0  0  0  0  0  0
    1.8026   -2.1852   -1.4449 H   0  0  0  0  0  0  0  0  0  0  0  0
    2.2482   -4.9777   -1.2843 H   0  0  0  0  0  0  0  0  0  0  0  0
    4.4354   -5.9732   -1.7196 H   0  0  0  0  0  0  0  0  0  0  0  0
    4.5495   -4.9084   -3.1602 H   0  0  0  0  0  0  0  0  0  0  0  0
    1.5828   -5.1513   -3.7169 H   0  0  0  0  0  0  0  0  0  0  0  0
    1.7961   -7.8064   -4.5615 H   0  0  0  0  0  0  0  0  0  0  0  0
    5.2062   -4.5440   -0.3736 H   0  0  0  0  0  0  0  0  0  0  0  0
    7.9943   -3.6303    1.7152 H   0  0  0  0  0  0  0  0  0  0  0  0
    7.3399   -4.0167    0.1237 H   0  0  0  0  0  0  0  0  0  0  0  0
    6.5617   -4.6662    1.6188 H   0  0  0  0  0  0  0  0  0  0  0  0
    4.7327   -0.6268    1.2914 H   0  0  0  0  0  0  0  0  0  0  0  0
  1  2  1  0  0  0  0
  1 17  1  0  0  0  0
  1 18  1  0  0  0  0
  1 19  1  0  0  0  0
  2  3  1  0  0  0  0
  3  4  1  0  0  0  0
  3 16  2  0  0  0  0
  4  5  2  0  0  0  0
  4 20  1  0  0  0  0
  5  6  1  0  0  0  0
  5 12  1  0  0  0  0
  6  7  1  0  0  0  0
  6 21  1  0  0  0  0
  7  8  1  0  0  0  0
  7 22  1  0  0  0  0
  7 23  1  0  0  0  0
  8  9  2  0  0  0  0
  8 10  1  0  0  0  0
 10 11  1  0  0  0  0
 10 24  1  0  0  0  0
 11 25  1  0  0  0  0
 12 13  2  0  0  0  0
 12 26  1  0  0  0  0
 13 14  1  0  0  0  0
 13 16  1  0  0  0  0
 14 15  1  0  0  0  0
 15 27  1  0  0  0  0
 15 28  1  0  0  0  0
 15 29  1  0  0  0  0
 16 30  1  0  0  0  0
M  END
>  <Line_Number>
266


> <IC50>
2280

$$$$
