145952401.0
 OpenBabel09302502333D

 22 22  0  0  0  0  0  0  0  0999 V2000
    2.6855   -0.9299    0.8008 O   0  0  0  0  0  0  0  0  0  0  0  0
    2.2890   -0.1832   -0.0935 C   0  0  0  0  0  0  0  0  0  0  0  0
    3.0366    1.0776   -0.5259 C   0  0  0  0  0  0  0  0  0  0  0  0
    2.1595    2.0098   -1.2613 N   0  0  0  0  0  0  0  0  0  0  0  0
    2.7428    3.2238   -1.6956 C   0  0  0  0  0  0  0  0  0  0  0  0
    4.0631    3.2865   -2.1673 C   0  0  0  0  0  0  0  0  0  0  0  0
    4.6104    4.4812   -2.6459 C   0  0  0  0  0  0  0  0  0  0  0  0
    3.8368    5.6365   -2.6974 C   0  0  0  0  0  0  0  0  0  0  0  0
    2.5079    5.5939   -2.2861 C   0  0  0  0  0  0  0  0  0  0  0  0
    1.9647    4.3968   -1.8042 C   0  0  0  0  0  0  0  0  0  0  0  0
    0.1391    4.4115   -1.2646 Br  0  0  0  0  0  0  0  0  0  0  0  0
    1.1647   -0.4613   -0.8310 N   0  0  0  0  0  0  0  0  0  0  0  0
    0.5439   -1.7079   -0.5970 O   0  0  0  0  0  0  0  0  0  0  0  0
    3.8598    0.7302   -1.1586 H   0  0  0  0  0  0  0  0  0  0  0  0
    3.4327    1.5652    0.3716 H   0  0  0  0  0  0  0  0  0  0  0  0
    1.3181    2.2329   -0.7195 H   0  0  0  0  0  0  0  0  0  0  0  0
    4.6980    2.4066   -2.1845 H   0  0  0  0  0  0  0  0  0  0  0  0
    5.6424    4.5039   -2.9890 H   0  0  0  0  0  0  0  0  0  0  0  0
    4.2639    6.5640   -3.0709 H   0  0  0  0  0  0  0  0  0  0  0  0
    1.9017    6.4940   -2.3466 H   0  0  0  0  0  0  0  0  0  0  0  0
    0.9836    0.0089   -1.7151 H   0  0  0  0  0  0  0  0  0  0  0  0
    1.1217   -2.1081    0.0892 H   0  0  0  0  0  0  0  0  0  0  0  0
  1  2  2  0  0  0  0
  2  3  1  0  0  0  0
  2 12  1  0  0  0  0
  3  4  1  0  0  0  0
  3 14  1  0  0  0  0
  3 15  1  0  0  0  0
  4  5  1  0  0  0  0
  4 16  1  0  0  0  0
  5  6  1  0  0  0  0
  5 10  2  0  0  0  0
  6  7  2  0  0  0  0
  6 17  1  0  0  0  0
  7  8  1  0  0  0  0
  7 18  1  0  0  0  0
  8  9  2  0  0  0  0
  8 19  1  0  0  0  0
  9 10  1  0  0  0  0
  9 20  1  0  0  0  0
 10 11  1  0  0  0  0
 12 13  1  0  0  0  0
 12 21  1  0  0  0  0
 13 22  1  0  0  0  0
M  END
>  <Line_Number>
267


> <IC50>
12300

$$$$
