145953083.0
 OpenBabel09302502333D

 22 22  0  0  0  0  0  0  0  0999 V2000
    1.3338    0.7863    1.0093 O   0  0  0  0  0  0  0  0  0  0  0  0
    2.3403    0.3854    0.4208 C   0  0  0  0  0  0  0  0  0  0  0  0
    3.0655    1.1817   -0.6649 C   0  0  0  0  0  0  0  0  0  0  0  0
    2.1704    2.1789   -1.2625 N   0  0  0  0  0  0  0  0  0  0  0  0
    2.7535    3.3084   -1.8485 C   0  0  0  0  0  0  0  0  0  0  0  0
    4.0111    3.2832   -2.4665 C   0  0  0  0  0  0  0  0  0  0  0  0
    4.5460    4.4276   -3.0671 C   0  0  0  0  0  0  0  0  0  0  0  0
    3.8067    5.6053   -3.0869 C   0  0  0  0  0  0  0  0  0  0  0  0
    4.5330    7.1571   -3.8829 Br  0  0  0  0  0  0  0  0  0  0  0  0
    2.5308    5.6396   -2.5350 C   0  0  0  0  0  0  0  0  0  0  0  0
    2.0047    4.4904   -1.9357 C   0  0  0  0  0  0  0  0  0  0  0  0
    2.9399   -0.8142    0.7329 N   0  0  0  0  0  0  0  0  0  0  0  0
    2.2546   -1.6153    1.6756 O   0  0  0  0  0  0  0  0  0  0  0  0
    3.4157    0.4930   -1.4415 H   0  0  0  0  0  0  0  0  0  0  0  0
    3.9263    1.6560   -0.1785 H   0  0  0  0  0  0  0  0  0  0  0  0
    1.4103    2.4200   -0.6211 H   0  0  0  0  0  0  0  0  0  0  0  0
    4.5992    2.3706   -2.4954 H   0  0  0  0  0  0  0  0  0  0  0  0
    5.5337    4.3831   -3.5174 H   0  0  0  0  0  0  0  0  0  0  0  0
    1.9355    6.5477   -2.5648 H   0  0  0  0  0  0  0  0  0  0  0  0
    0.9993    4.5306   -1.5222 H   0  0  0  0  0  0  0  0  0  0  0  0
    3.5590   -1.3048    0.0961 H   0  0  0  0  0  0  0  0  0  0  0  0
    1.4789   -1.0590    1.9089 H   0  0  0  0  0  0  0  0  0  0  0  0
  1  2  2  0  0  0  0
  2  3  1  0  0  0  0
  2 12  1  0  0  0  0
  3  4  1  0  0  0  0
  3 14  1  0  0  0  0
  3 15  1  0  0  0  0
  4  5  1  0  0  0  0
  4 16  1  0  0  0  0
  5  6  1  0  0  0  0
  5 11  2  0  0  0  0
  6  7  2  0  0  0  0
  6 17  1  0  0  0  0
  7  8  1  0  0  0  0
  7 18  1  0  0  0  0
  8  9  1  0  0  0  0
  8 10  2  0  0  0  0
 10 11  1  0  0  0  0
 10 19  1  0  0  0  0
 11 20  1  0  0  0  0
 12 13  1  0  0  0  0
 12 21  1  0  0  0  0
 13 22  1  0  0  0  0
M  END
>  <Line_Number>
268


> <IC50>
2010

$$$$
