145974309.0
 OpenBabel09302502333D

 28 28  0  0  0  0  0  0  0  0999 V2000
    2.5238    1.0976   -0.0003 C   0  0  0  0  0  0  0  0  0  0  0  0
    1.2246    0.3499   -0.0103 C   0  0  0  0  0  0  0  0  0  0  0  0
    0.0032    1.0226   -0.0089 C   0  0  0  0  0  0  0  0  0  0  0  0
   -1.1983    0.3065    0.0050 C   0  0  0  0  0  0  0  0  0  0  0  0
   -2.5190    1.0199   -0.0062 C   0  0  0  0  0  0  0  0  0  0  0  0
   -1.1576   -1.0985    0.0295 C   0  0  0  0  0  0  0  0  0  0  0  0
    0.0501   -1.8016    0.0323 C   0  0  0  0  0  0  0  0  0  0  0  0
    0.0438   -3.1824    0.0681 N   0  0  0  0  0  0  0  0  0  0  0  0
    1.0814   -3.9946   -0.5573 C   0  0  0  0  0  0  0  0  0  0  0  0
    0.7824   -5.4876   -0.3910 C   0  0  0  0  0  0  0  0  0  0  0  0
   -0.2225   -5.9371    0.1607 O   0  0  0  0  0  0  0  0  0  0  0  0
    1.7464   -6.3111   -0.9220 N   0  0  0  0  0  0  0  0  0  0  0  0
    1.5253   -7.7007   -0.8118 O   0  0  0  0  0  0  0  0  0  0  0  0
    1.2374   -1.0531   -0.0078 C   0  0  0  0  0  0  0  0  0  0  0  0
    2.3661    2.1807   -0.0172 H   0  0  0  0  0  0  0  0  0  0  0  0
    3.1212    0.8304   -0.8793 H   0  0  0  0  0  0  0  0  0  0  0  0
    3.0875    0.8532    0.9048 H   0  0  0  0  0  0  0  0  0  0  0  0
   -0.0178    2.1116   -0.0132 H   0  0  0  0  0  0  0  0  0  0  0  0
   -2.3899    2.1074    0.0079 H   0  0  0  0  0  0  0  0  0  0  0  0
   -3.1042    0.7412    0.8762 H   0  0  0  0  0  0  0  0  0  0  0  0
   -3.0817    0.7592   -0.9087 H   0  0  0  0  0  0  0  0  0  0  0  0
   -2.0989   -1.6496    0.0361 H   0  0  0  0  0  0  0  0  0  0  0  0
   -0.8352   -3.6634    0.2605 H   0  0  0  0  0  0  0  0  0  0  0  0
    2.0532   -3.8023   -0.0893 H   0  0  0  0  0  0  0  0  0  0  0  0
    1.1420   -3.7796   -1.6304 H   0  0  0  0  0  0  0  0  0  0  0  0
    2.5563   -6.0104   -1.4522 H   0  0  0  0  0  0  0  0  0  0  0  0
    0.6780   -7.7424   -0.3155 H   0  0  0  0  0  0  0  0  0  0  0  0
    2.1951   -1.5610    0.0043 H   0  0  0  0  0  0  0  0  0  0  0  0
  1  2  1  0  0  0  0
  1 15  1  0  0  0  0
  1 16  1  0  0  0  0
  1 17  1  0  0  0  0
  2  3  1  0  0  0  0
  2 14  2  0  0  0  0
  3  4  2  0  0  0  0
  3 18  1  0  0  0  0
  4  5  1  0  0  0  0
  4  6  1  0  0  0  0
  5 19  1  0  0  0  0
  5 20  1  0  0  0  0
  5 21  1  0  0  0  0
  6  7  2  0  0  0  0
  6 22  1  0  0  0  0
  7  8  1  0  0  0  0
  7 14  1  0  0  0  0
  8  9  1  0  0  0  0
  8 23  1  0  0  0  0
  9 10  1  0  0  0  0
  9 24  1  0  0  0  0
  9 25  1  0  0  0  0
 10 11  2  0  0  0  0
 10 12  1  0  0  0  0
 12 13  1  0  0  0  0
 12 26  1  0  0  0  0
 13 27  1  0  0  0  0
 14 28  1  0  0  0  0
M  END
>  <Line_Number>
269


> <IC50>
2120

$$$$
