46195675.0
 OpenBabel09302502333D

 31 32  0  0  0  0  0  0  0  0999 V2000
    2.2178    1.1412    0.4543 O   0  0  0  0  0  0  0  0  0  0  0  0
    1.1016    0.3636    0.3361 C   0  0  0  0  0  0  0  0  0  0  0  0
    0.4398   -0.1010    1.4669 C   0  0  0  0  0  0  0  0  0  0  0  0
   -0.6981   -0.9034    1.3246 C   0  0  0  0  0  0  0  0  0  0  0  0
   -1.1906   -1.2646    0.0549 C   0  0  0  0  0  0  0  0  0  0  0  0
   -2.4174   -2.1469   -0.0077 C   0  0  0  0  0  0  0  0  0  0  0  0
   -3.7249   -1.3434    0.0135 C   0  0  0  0  0  0  0  0  0  0  0  0
   -5.0154   -2.1423    0.0399 C   0  0  0  0  0  0  0  0  0  0  0  0
   -5.0653   -3.5450    0.0700 C   0  0  0  0  0  0  0  0  0  0  0  0
   -6.2919   -4.2145    0.1019 C   0  0  0  0  0  0  0  0  0  0  0  0
   -7.4755   -3.4897    0.1049 C   0  0  0  0  0  0  0  0  0  0  0  0
   -8.6492   -4.1349    0.1347 F   0  0  0  0  0  0  0  0  0  0  0  0
   -7.4565   -2.1023    0.0789 C   0  0  0  0  0  0  0  0  0  0  0  0
   -6.2309   -1.4315    0.0472 C   0  0  0  0  0  0  0  0  0  0  0  0
   -0.5163   -0.7745   -1.0700 C   0  0  0  0  0  0  0  0  0  0  0  0
   -0.8952   -1.0385   -2.3611 O   0  0  0  0  0  0  0  0  0  0  0  0
    0.6219    0.0310   -0.9259 C   0  0  0  0  0  0  0  0  0  0  0  0
    1.2611    0.4834   -2.0505 O   0  0  0  0  0  0  0  0  0  0  0  0
    2.4216    1.2665    1.3934 H   0  0  0  0  0  0  0  0  0  0  0  0
    0.7918    0.1462    2.4637 H   0  0  0  0  0  0  0  0  0  0  0  0
   -1.2008   -1.2565    2.2243 H   0  0  0  0  0  0  0  0  0  0  0  0
   -2.3873   -2.8328    0.8488 H   0  0  0  0  0  0  0  0  0  0  0  0
   -2.3737   -2.7945   -0.8906 H   0  0  0  0  0  0  0  0  0  0  0  0
   -3.7522   -0.6895   -0.8687 H   0  0  0  0  0  0  0  0  0  0  0  0
   -3.7258   -0.6891    0.8958 H   0  0  0  0  0  0  0  0  0  0  0  0
   -4.1601   -4.1462    0.0739 H   0  0  0  0  0  0  0  0  0  0  0  0
   -6.3303   -5.2992    0.1257 H   0  0  0  0  0  0  0  0  0  0  0  0
   -8.3914   -1.5519    0.0845 H   0  0  0  0  0  0  0  0  0  0  0  0
   -6.2285   -0.3434    0.0314 H   0  0  0  0  0  0  0  0  0  0  0  0
   -1.6531   -1.6421   -2.3628 H   0  0  0  0  0  0  0  0  0  0  0  0
    0.7403    0.1183   -2.7909 H   0  0  0  0  0  0  0  0  0  0  0  0
  1  2  1  0  0  0  0
  1 19  1  0  0  0  0
  2  3  1  0  0  0  0
  2 17  2  0  0  0  0
  3  4  2  0  0  0  0
  3 20  1  0  0  0  0
  4  5  1  0  0  0  0
  4 21  1  0  0  0  0
  5  6  1  0  0  0  0
  5 15  2  0  0  0  0
  6  7  1  0  0  0  0
  6 22  1  0  0  0  0
  6 23  1  0  0  0  0
  7  8  1  0  0  0  0
  7 24  1  0  0  0  0
  7 25  1  0  0  0  0
  8  9  1  0  0  0  0
  8 14  2  0  0  0  0
  9 10  2  0  0  0  0
  9 26  1  0  0  0  0
 10 11  1  0  0  0  0
 10 27  1  0  0  0  0
 11 12  1  0  0  0  0
 11 13  2  0  0  0  0
 13 14  1  0  0  0  0
 13 28  1  0  0  0  0
 14 29  1  0  0  0  0
 15 16  1  0  0  0  0
 15 17  1  0  0  0  0
 16 30  1  0  0  0  0
 17 18  1  0  0  0  0
 18 31  1  0  0  0  0
M  END
>  <Line_Number>
26


> <IC50>
43000

$$$$
