145974348.0
 OpenBabel09302502333D

 22 22  0  0  0  0  0  0  0  0999 V2000
    2.5414   -1.2158    0.3066 O   0  0  0  0  0  0  0  0  0  0  0  0
    2.2161   -0.1008   -0.0915 C   0  0  0  0  0  0  0  0  0  0  0  0
    2.9948    1.1779    0.2294 C   0  0  0  0  0  0  0  0  0  0  0  0
    2.0681    2.3175    0.4145 N   0  0  0  0  0  0  0  0  0  0  0  0
    2.6267    3.5677    0.7368 C   0  0  0  0  0  0  0  0  0  0  0  0
    3.8760    3.9944    0.2788 C   0  0  0  0  0  0  0  0  0  0  0  0
    4.3481    5.2820    0.5663 C   0  0  0  0  0  0  0  0  0  0  0  0
    5.9002    5.7649   -0.0011 Cl  0  0  0  0  0  0  0  0  0  0  0  0
    3.5781    6.1757    1.2980 C   0  0  0  0  0  0  0  0  0  0  0  0
    2.3185    5.7769    1.7262 C   0  0  0  0  0  0  0  0  0  0  0  0
    1.3351    6.8712    2.6206 Cl  0  0  0  0  0  0  0  0  0  0  0  0
    1.8369    4.4956    1.4342 C   0  0  0  0  0  0  0  0  0  0  0  0
    1.1283    0.1070   -0.9040 N   0  0  0  0  0  0  0  0  0  0  0  0
    0.2849   -0.9982   -1.1454 O   0  0  0  0  0  0  0  0  0  0  0  0
    3.6816    1.3463   -0.6059 H   0  0  0  0  0  0  0  0  0  0  0  0
    3.5612    1.0090    1.1519 H   0  0  0  0  0  0  0  0  0  0  0  0
    1.3322    2.0790    1.0820 H   0  0  0  0  0  0  0  0  0  0  0  0
    4.5032    3.3463   -0.3282 H   0  0  0  0  0  0  0  0  0  0  0  0
    3.9486    7.1713    1.5236 H   0  0  0  0  0  0  0  0  0  0  0  0
    0.8371    4.2212    1.7627 H   0  0  0  0  0  0  0  0  0  0  0  0
    0.7605    1.0391   -1.0772 H   0  0  0  0  0  0  0  0  0  0  0  0
    0.7077   -1.7126   -0.6214 H   0  0  0  0  0  0  0  0  0  0  0  0
  1  2  2  0  0  0  0
  2  3  1  0  0  0  0
  2 13  1  0  0  0  0
  3  4  1  0  0  0  0
  3 15  1  0  0  0  0
  3 16  1  0  0  0  0
  4  5  1  0  0  0  0
  4 17  1  0  0  0  0
  5  6  1  0  0  0  0
  5 12  2  0  0  0  0
  6  7  2  0  0  0  0
  6 18  1  0  0  0  0
  7  8  1  0  0  0  0
  7  9  1  0  0  0  0
  9 10  2  0  0  0  0
  9 19  1  0  0  0  0
 10 11  1  0  0  0  0
 10 12  1  0  0  0  0
 12 20  1  0  0  0  0
 13 14  1  0  0  0  0
 13 21  1  0  0  0  0
 14 22  1  0  0  0  0
M  END
>  <Line_Number>
270


> <IC50>
8515

$$$$
