145951218.0
 OpenBabel09302502333D

 29 29  0  0  0  0  0  0  0  0999 V2000
    0.9684    0.0869    0.4869 C   0  0  0  0  0  0  0  0  0  0  0  0
    2.3108   -0.0072    0.0339 O   0  0  0  0  0  0  0  0  0  0  0  0
    3.0286    1.1537   -0.1014 C   0  0  0  0  0  0  0  0  0  0  0  0
    2.7316    2.2928    0.6642 C   0  0  0  0  0  0  0  0  0  0  0  0
    3.5091    3.4453    0.5642 C   0  0  0  0  0  0  0  0  0  0  0  0
    4.6006    3.4677   -0.2919 C   0  0  0  0  0  0  0  0  0  0  0  0
    4.9012    2.3419   -1.0631 C   0  0  0  0  0  0  0  0  0  0  0  0
    4.1170    1.1715   -1.0110 C   0  0  0  0  0  0  0  0  0  0  0  0
    4.5665    0.0923   -1.8103 N   0  0  0  0  0  0  0  0  0  0  0  0
    3.7488   -1.1173   -1.9026 C   0  0  0  0  0  0  0  0  0  0  0  0
    4.3561   -2.1319   -2.8622 C   0  0  0  0  0  0  0  0  0  0  0  0
    3.4855   -3.3689   -2.9002 C   0  0  0  0  0  0  0  0  0  0  0  0
    2.4596   -3.5260   -2.2404 O   0  0  0  0  0  0  0  0  0  0  0  0
    3.9285   -4.3404   -3.7647 N   0  0  0  0  0  0  0  0  0  0  0  0
    3.1895   -5.5490   -3.7479 O   0  0  0  0  0  0  0  0  0  0  0  0
    0.5066   -0.8967    0.3550 H   0  0  0  0  0  0  0  0  0  0  0  0
    0.3961    0.8075   -0.1065 H   0  0  0  0  0  0  0  0  0  0  0  0
    0.9282    0.3263    1.5534 H   0  0  0  0  0  0  0  0  0  0  0  0
    1.9100    2.2993    1.3726 H   0  0  0  0  0  0  0  0  0  0  0  0
    3.2731    4.3134    1.1738 H   0  0  0  0  0  0  0  0  0  0  0  0
    5.2294    4.3518   -0.3510 H   0  0  0  0  0  0  0  0  0  0  0  0
    5.7788    2.3758   -1.7050 H   0  0  0  0  0  0  0  0  0  0  0  0
    4.8748    0.4421   -2.7147 H   0  0  0  0  0  0  0  0  0  0  0  0
    2.7408   -0.8628   -2.2522 H   0  0  0  0  0  0  0  0  0  0  0  0
    3.6908   -1.5953   -0.9183 H   0  0  0  0  0  0  0  0  0  0  0  0
    5.3638   -2.4135   -2.5358 H   0  0  0  0  0  0  0  0  0  0  0  0
    4.4280   -1.7139   -3.8725 H   0  0  0  0  0  0  0  0  0  0  0  0
    4.8617   -4.3757   -4.1590 H   0  0  0  0  0  0  0  0  0  0  0  0
    2.4872   -5.3576   -3.0865 H   0  0  0  0  0  0  0  0  0  0  0  0
  1  2  1  0  0  0  0
  1 16  1  0  0  0  0
  1 17  1  0  0  0  0
  1 18  1  0  0  0  0
  2  3  1  0  0  0  0
  3  4  1  0  0  0  0
  3  8  2  0  0  0  0
  4  5  2  0  0  0  0
  4 19  1  0  0  0  0
  5  6  1  0  0  0  0
  5 20  1  0  0  0  0
  6  7  2  0  0  0  0
  6 21  1  0  0  0  0
  7  8  1  0  0  0  0
  7 22  1  0  0  0  0
  8  9  1  0  0  0  0
  9 10  1  0  0  0  0
  9 23  1  0  0  0  0
 10 11  1  0  0  0  0
 10 24  1  0  0  0  0
 10 25  1  0  0  0  0
 11 12  1  0  0  0  0
 11 26  1  0  0  0  0
 11 27  1  0  0  0  0
 12 13  2  0  0  0  0
 12 14  1  0  0  0  0
 14 15  1  0  0  0  0
 14 28  1  0  0  0  0
 15 29  1  0  0  0  0
M  END
>  <Line_Number>
271


> <IC50>
1640

$$$$
