145973840.0
 OpenBabel09302502333D

 27 27  0  0  0  0  0  0  0  0999 V2000
    1.0093   -0.3747    0.2868 O   0  0  0  0  0  0  0  0  0  0  0  0
    2.1525   -0.0334   -0.0039 C   0  0  0  0  0  0  0  0  0  0  0  0
    2.8614    1.1649    0.5784 C   0  0  0  0  0  0  0  0  0  0  0  0
    1.9783    1.9065    1.5760 C   0  0  0  0  0  0  0  0  0  0  0  0
    2.6922    3.0793    2.0817 N   0  0  0  0  0  0  0  0  0  0  0  0
    2.1257    3.8990    3.0601 C   0  0  0  0  0  0  0  0  0  0  0  0
    0.8115    3.7723    3.5275 C   0  0  0  0  0  0  0  0  0  0  0  0
    0.2808    4.6628    4.4701 C   0  0  0  0  0  0  0  0  0  0  0  0
    1.0467    5.7258    4.9409 C   0  0  0  0  0  0  0  0  0  0  0  0
    2.3458    5.8907    4.4544 C   0  0  0  0  0  0  0  0  0  0  0  0
    3.1587    7.0199    4.9205 N   0  3  0  0  0  0  0  0  0  0  0  0
    2.6570    7.7858    5.7561 O   0  0  0  0  0  0  0  0  0  0  0  0
    4.3016    7.1408    4.4564 O   0  5  0  0  0  0  0  0  0  0  0  0
    2.8797    4.9903    3.5187 C   0  0  0  0  0  0  0  0  0  0  0  0
    2.9195   -0.7353   -0.8994 N   0  0  0  0  0  0  0  0  0  0  0  0
    2.3303   -1.8677   -1.4991 O   0  0  0  0  0  0  0  0  0  0  0  0
    3.1517    1.8322   -0.2418 H   0  0  0  0  0  0  0  0  0  0  0  0
    3.7770    0.8187    1.0723 H   0  0  0  0  0  0  0  0  0  0  0  0
    1.7105    1.2357    2.4017 H   0  0  0  0  0  0  0  0  0  0  0  0
    1.0543    2.2249    1.0781 H   0  0  0  0  0  0  0  0  0  0  0  0
    3.6843    2.9243    2.2549 H   0  0  0  0  0  0  0  0  0  0  0  0
    0.1725    2.9655    3.1800 H   0  0  0  0  0  0  0  0  0  0  0  0
   -0.7366    4.5244    4.8293 H   0  0  0  0  0  0  0  0  0  0  0  0
    0.6183    6.4127    5.6673 H   0  0  0  0  0  0  0  0  0  0  0  0
    3.8837    5.1427    3.1260 H   0  0  0  0  0  0  0  0  0  0  0  0
    3.8542   -0.4834   -1.2022 H   0  0  0  0  0  0  0  0  0  0  0  0
    1.4363   -1.8847   -1.0908 H   0  0  0  0  0  0  0  0  0  0  0  0
  1  2  2  0  0  0  0
  2  3  1  0  0  0  0
  2 15  1  0  0  0  0
  3  4  1  0  0  0  0
  3 17  1  0  0  0  0
  3 18  1  0  0  0  0
  4  5  1  0  0  0  0
  4 19  1  0  0  0  0
  4 20  1  0  0  0  0
  5  6  1  0  0  0  0
  5 21  1  0  0  0  0
  6  7  1  0  0  0  0
  6 14  2  0  0  0  0
  7  8  2  0  0  0  0
  7 22  1  0  0  0  0
  8  9  1  0  0  0  0
  8 23  1  0  0  0  0
  9 10  2  0  0  0  0
  9 24  1  0  0  0  0
 10 11  1  0  0  0  0
 10 14  1  0  0  0  0
 11 12  2  0  0  0  0
 11 13  1  0  0  0  0
 14 25  1  0  0  0  0
 15 16  1  0  0  0  0
 15 26  1  0  0  0  0
 16 27  1  0  0  0  0
M  CHG  2  11   1  13  -1
M  END
>  <Line_Number>
272


> <IC50>
5100

$$$$
