130005353.0
 OpenBabel09302502333D

 22 22  0  0  0  0  0  0  0  0999 V2000
    2.5794    0.8670    0.6588 O   0  0  0  0  0  0  0  0  0  0  0  0
    2.1978   -0.0502   -0.0663 C   0  0  0  0  0  0  0  0  0  0  0  0
    2.9842   -0.5497   -1.2806 C   0  0  0  0  0  0  0  0  0  0  0  0
    2.0641   -1.0221   -2.3317 N   0  0  0  0  0  0  0  0  0  0  0  0
    2.5775   -1.4629   -3.5597 C   0  0  0  0  0  0  0  0  0  0  0  0
    3.9356   -1.6958   -3.8078 C   0  0  0  0  0  0  0  0  0  0  0  0
    4.3717   -2.1834   -5.0453 C   0  0  0  0  0  0  0  0  0  0  0  0
    3.4495   -2.4827   -6.0448 C   0  0  0  0  0  0  0  0  0  0  0  0
    2.0943   -2.2950   -5.7980 C   0  0  0  0  0  0  0  0  0  0  0  0
    0.9404   -2.6927   -7.0117 Cl  0  0  0  0  0  0  0  0  0  0  0  0
    1.6607   -1.7947   -4.5692 C   0  0  0  0  0  0  0  0  0  0  0  0
    1.0328   -0.7344    0.1675 N   0  0  0  0  0  0  0  0  0  0  0  0
    0.1935   -0.2507    1.1916 O   0  0  0  0  0  0  0  0  0  0  0  0
    3.6324   -1.3645   -0.9379 H   0  0  0  0  0  0  0  0  0  0  0  0
    3.5923    0.2820   -1.6535 H   0  0  0  0  0  0  0  0  0  0  0  0
    1.2977   -0.3657   -2.4939 H   0  0  0  0  0  0  0  0  0  0  0  0
    4.6916   -1.4823   -3.0567 H   0  0  0  0  0  0  0  0  0  0  0  0
    5.4335   -2.3330   -5.2264 H   0  0  0  0  0  0  0  0  0  0  0  0
    3.7889   -2.8694   -7.0018 H   0  0  0  0  0  0  0  0  0  0  0  0
    0.5947   -1.6736   -4.3930 H   0  0  0  0  0  0  0  0  0  0  0  0
    0.6552   -1.4060   -0.4958 H   0  0  0  0  0  0  0  0  0  0  0  0
    0.6915    0.5266    1.5266 H   0  0  0  0  0  0  0  0  0  0  0  0
  1  2  2  0  0  0  0
  2  3  1  0  0  0  0
  2 12  1  0  0  0  0
  3  4  1  0  0  0  0
  3 14  1  0  0  0  0
  3 15  1  0  0  0  0
  4  5  1  0  0  0  0
  4 16  1  0  0  0  0
  5  6  1  0  0  0  0
  5 11  2  0  0  0  0
  6  7  2  0  0  0  0
  6 17  1  0  0  0  0
  7  8  1  0  0  0  0
  7 18  1  0  0  0  0
  8  9  2  0  0  0  0
  8 19  1  0  0  0  0
  9 10  1  0  0  0  0
  9 11  1  0  0  0  0
 11 20  1  0  0  0  0
 12 13  1  0  0  0  0
 12 21  1  0  0  0  0
 13 22  1  0  0  0  0
M  END
>  <Line_Number>
273


> <IC50>
1150

$$$$
