145958473.0
 OpenBabel09302502333D

 27 27  0  0  0  0  0  0  0  0999 V2000
    0.9848   -0.0696    0.0578 O   0  0  0  0  0  0  0  0  0  0  0  0
    2.2077    0.0491    0.0857 C   0  0  0  0  0  0  0  0  0  0  0  0
    2.9529    1.3020   -0.3014 C   0  0  0  0  0  0  0  0  0  0  0  0
    1.9921    2.3689   -0.8121 C   0  0  0  0  0  0  0  0  0  0  0  0
    2.7361    3.5827   -1.1647 N   0  0  0  0  0  0  0  0  0  0  0  0
    2.0476    4.7043   -1.6679 C   0  0  0  0  0  0  0  0  0  0  0  0
    0.7257    4.9718   -1.2569 C   0  0  0  0  0  0  0  0  0  0  0  0
    0.0457    6.1342   -1.6377 C   0  0  0  0  0  0  0  0  0  0  0  0
    0.6742    7.0885   -2.4254 C   0  0  0  0  0  0  0  0  0  0  0  0
    1.9861    6.8768   -2.8385 C   0  0  0  0  0  0  0  0  0  0  0  0
    2.6699    5.7011   -2.4627 C   0  0  0  0  0  0  0  0  0  0  0  0
    4.0456    5.5363   -2.9705 N   0  3  0  0  0  0  0  0  0  0  0  0
    4.6023    4.4354   -2.8295 O   0  0  0  0  0  0  0  0  0  0  0  0
    4.5689    6.5038   -3.5456 O   0  5  0  0  0  0  0  0  0  0  0  0
    3.0292   -0.9772    0.4872 N   0  0  0  0  0  0  0  0  0  0  0  0
    2.3840   -2.1403    0.9634 O   0  0  0  0  0  0  0  0  0  0  0  0
    3.6942    1.0523   -1.0702 H   0  0  0  0  0  0  0  0  0  0  0  0
    3.4912    1.6720    0.5804 H   0  0  0  0  0  0  0  0  0  0  0  0
    1.2648    2.5788   -0.0202 H   0  0  0  0  0  0  0  0  0  0  0  0
    1.4490    1.9975   -1.6897 H   0  0  0  0  0  0  0  0  0  0  0  0
    3.5701    3.3817   -1.7317 H   0  0  0  0  0  0  0  0  0  0  0  0
    0.1908    4.2842   -0.6084 H   0  0  0  0  0  0  0  0  0  0  0  0
   -0.9762    6.2940   -1.2996 H   0  0  0  0  0  0  0  0  0  0  0  0
    0.1481    7.9963   -2.7093 H   0  0  0  0  0  0  0  0  0  0  0  0
    2.4650    7.6394   -3.4509 H   0  0  0  0  0  0  0  0  0  0  0  0
    4.0053   -0.8602    0.7367 H   0  0  0  0  0  0  0  0  0  0  0  0
    1.4329   -1.9114    0.8702 H   0  0  0  0  0  0  0  0  0  0  0  0
  1  2  2  0  0  0  0
  2  3  1  0  0  0  0
  2 15  1  0  0  0  0
  3  4  1  0  0  0  0
  3 17  1  0  0  0  0
  3 18  1  0  0  0  0
  4  5  1  0  0  0  0
  4 19  1  0  0  0  0
  4 20  1  0  0  0  0
  5  6  1  0  0  0  0
  5 21  1  0  0  0  0
  6  7  1  0  0  0  0
  6 11  2  0  0  0  0
  7  8  2  0  0  0  0
  7 22  1  0  0  0  0
  8  9  1  0  0  0  0
  8 23  1  0  0  0  0
  9 10  2  0  0  0  0
  9 24  1  0  0  0  0
 10 11  1  0  0  0  0
 10 25  1  0  0  0  0
 11 12  1  0  0  0  0
 12 13  2  0  0  0  0
 12 14  1  0  0  0  0
 15 16  1  0  0  0  0
 15 26  1  0  0  0  0
 16 27  1  0  0  0  0
M  CHG  2  12   1  14  -1
M  END
>  <Line_Number>
274


> <IC50>
10530

$$$$
