145957965.0
 OpenBabel09302502333D

 22 22  0  0  0  0  0  0  0  0999 V2000
    2.4211   -1.1001    0.3576 O   0  0  0  0  0  0  0  0  0  0  0  0
    2.1529   -0.0242   -0.1740 C   0  0  0  0  0  0  0  0  0  0  0  0
    2.9038    1.2759    0.1171 C   0  0  0  0  0  0  0  0  0  0  0  0
    1.9786    2.4229    0.0898 N   0  0  0  0  0  0  0  0  0  0  0  0
    2.4989    3.7109    0.3532 C   0  0  0  0  0  0  0  0  0  0  0  0
    3.7978    4.0858   -0.0223 C   0  0  0  0  0  0  0  0  0  0  0  0
    4.2547    5.3921    0.1788 C   0  0  0  0  0  0  0  0  0  0  0  0
    5.8642    5.8077   -0.2691 Cl  0  0  0  0  0  0  0  0  0  0  0  0
    3.4231    6.3629    0.7319 C   0  0  0  0  0  0  0  0  0  0  0  0
    2.1175    6.0277    1.0783 C   0  0  0  0  0  0  0  0  0  0  0  0
    1.6591    4.7208    0.8793 C   0  0  0  0  0  0  0  0  0  0  0  0
    0.0258    4.3570    1.3274 Cl  0  0  0  0  0  0  0  0  0  0  0  0
    1.1756    0.1027   -1.1318 N   0  0  0  0  0  0  0  0  0  0  0  0
    0.3563   -1.0252   -1.3555 O   0  0  0  0  0  0  0  0  0  0  0  0
    3.6799    1.3646   -0.6497 H   0  0  0  0  0  0  0  0  0  0  0  0
    3.3660    1.1916    1.1068 H   0  0  0  0  0  0  0  0  0  0  0  0
    1.1674    2.2715    0.6995 H   0  0  0  0  0  0  0  0  0  0  0  0
    4.4737    3.3753   -0.4867 H   0  0  0  0  0  0  0  0  0  0  0  0
    3.7795    7.3772    0.8824 H   0  0  0  0  0  0  0  0  0  0  0  0
    1.4593    6.7855    1.4960 H   0  0  0  0  0  0  0  0  0  0  0  0
    0.8083    1.0175   -1.3845 H   0  0  0  0  0  0  0  0  0  0  0  0
    0.7143   -1.6815   -0.7190 H   0  0  0  0  0  0  0  0  0  0  0  0
  1  2  2  0  0  0  0
  2  3  1  0  0  0  0
  2 13  1  0  0  0  0
  3  4  1  0  0  0  0
  3 15  1  0  0  0  0
  3 16  1  0  0  0  0
  4  5  1  0  0  0  0
  4 17  1  0  0  0  0
  5  6  1  0  0  0  0
  5 11  2  0  0  0  0
  6  7  2  0  0  0  0
  6 18  1  0  0  0  0
  7  8  1  0  0  0  0
  7  9  1  0  0  0  0
  9 10  2  0  0  0  0
  9 19  1  0  0  0  0
 10 11  1  0  0  0  0
 10 20  1  0  0  0  0
 11 12  1  0  0  0  0
 13 14  1  0  0  0  0
 13 21  1  0  0  0  0
 14 22  1  0  0  0  0
M  END
>  <Line_Number>
275


> <IC50>
1640

$$$$
