145959103.0
 OpenBabel09302502333D

 25 25  0  0  0  0  0  0  0  0999 V2000
    1.0871   -0.1782    0.1331 O   0  0  0  0  0  0  0  0  0  0  0  0
    2.2998    0.0113    0.1629 C   0  0  0  0  0  0  0  0  0  0  0  0
    3.0453    0.9504   -0.7564 C   0  0  0  0  0  0  0  0  0  0  0  0
    2.0847    1.6715   -1.6940 C   0  0  0  0  0  0  0  0  0  0  0  0
    2.8366    2.5570   -2.5902 N   0  0  0  0  0  0  0  0  0  0  0  0
    2.1082    3.3082   -3.5303 C   0  0  0  0  0  0  0  0  0  0  0  0
    0.8012    3.7605   -3.3116 C   0  0  0  0  0  0  0  0  0  0  0  0
    0.1419    4.5611   -4.2510 C   0  0  0  0  0  0  0  0  0  0  0  0
    0.7909    4.9484   -5.4184 C   0  0  0  0  0  0  0  0  0  0  0  0
    2.1054    4.5499   -5.6360 C   0  0  0  0  0  0  0  0  0  0  0  0
    2.7610    3.7525   -4.6911 C   0  0  0  0  0  0  0  0  0  0  0  0
    3.1152   -0.6426    1.0519 N   0  0  0  0  0  0  0  0  0  0  0  0
    2.4959   -1.5493    1.9383 O   0  0  0  0  0  0  0  0  0  0  0  0
    3.7763    0.3689   -1.3292 H   0  0  0  0  0  0  0  0  0  0  0  0
    3.5933    1.6781   -0.1457 H   0  0  0  0  0  0  0  0  0  0  0  0
    1.3770    2.2447   -1.0850 H   0  0  0  0  0  0  0  0  0  0  0  0
    1.5178    0.9422   -2.2861 H   0  0  0  0  0  0  0  0  0  0  0  0
    3.6114    2.0821   -3.0489 H   0  0  0  0  0  0  0  0  0  0  0  0
    0.2646    3.5091   -2.4027 H   0  0  0  0  0  0  0  0  0  0  0  0
   -0.8767    4.8879   -4.0595 H   0  0  0  0  0  0  0  0  0  0  0  0
    0.2789    5.5713   -6.1465 H   0  0  0  0  0  0  0  0  0  0  0  0
    2.6267    4.8641   -6.5359 H   0  0  0  0  0  0  0  0  0  0  0  0
    3.7947    3.4742   -4.8771 H   0  0  0  0  0  0  0  0  0  0  0  0
    4.1198   -0.5292    1.1275 H   0  0  0  0  0  0  0  0  0  0  0  0
    1.5508   -1.4891    1.6764 H   0  0  0  0  0  0  0  0  0  0  0  0
  1  2  2  0  0  0  0
  2  3  1  0  0  0  0
  2 12  1  0  0  0  0
  3  4  1  0  0  0  0
  3 14  1  0  0  0  0
  3 15  1  0  0  0  0
  4  5  1  0  0  0  0
  4 16  1  0  0  0  0
  4 17  1  0  0  0  0
  5  6  1  0  0  0  0
  5 18  1  0  0  0  0
  6  7  1  0  0  0  0
  6 11  2  0  0  0  0
  7  8  2  0  0  0  0
  7 19  1  0  0  0  0
  8  9  1  0  0  0  0
  8 20  1  0  0  0  0
  9 10  2  0  0  0  0
  9 21  1  0  0  0  0
 10 11  1  0  0  0  0
 10 22  1  0  0  0  0
 11 23  1  0  0  0  0
 12 13  1  0  0  0  0
 12 24  1  0  0  0  0
 13 25  1  0  0  0  0
M  END
>  <Line_Number>
276


> <IC50>
1220

$$$$
