145956167.0
 OpenBabel09302502333D

 25 25  0  0  0  0  0  0  0  0999 V2000
    0.6699    0.2398    0.3478 O   0  0  0  0  0  0  0  0  0  0  0  0
    1.0591    0.6133    1.4532 C   0  0  0  0  0  0  0  0  0  0  0  0
    1.8055   -0.2547    2.4351 C   0  0  0  0  0  0  0  0  0  0  0  0
    2.1090   -1.6258    1.8422 C   0  0  0  0  0  0  0  0  0  0  0  0
    2.7876   -2.4752    2.8259 N   0  0  0  0  0  0  0  0  0  0  0  0
    2.0728   -3.2507    3.7380 C   0  0  0  0  0  0  0  0  0  0  0  0
    0.8327   -3.8297    3.4446 C   0  0  0  0  0  0  0  0  0  0  0  0
    0.1867   -4.6592    4.3671 C   0  0  0  0  0  0  0  0  0  0  0  0
   -1.3363   -5.3543    3.9636 Cl  0  0  0  0  0  0  0  0  0  0  0  0
    0.7643   -4.9393    5.5984 C   0  0  0  0  0  0  0  0  0  0  0  0
    2.0056   -4.3908    5.8934 C   0  0  0  0  0  0  0  0  0  0  0  0
    2.7471   -4.7320    7.4092 Cl  0  0  0  0  0  0  0  0  0  0  0  0
    2.6607   -3.5679    4.9718 C   0  0  0  0  0  0  0  0  0  0  0  0
    0.8417    1.8907    1.9062 N   0  0  0  0  0  0  0  0  0  0  0  0
    0.0763    2.7328    1.0696 O   0  0  0  0  0  0  0  0  0  0  0  0
    1.1959   -0.3526    3.3423 H   0  0  0  0  0  0  0  0  0  0  0  0
    2.7408    0.2492    2.7103 H   0  0  0  0  0  0  0  0  0  0  0  0
    2.7853   -1.5051    0.9862 H   0  0  0  0  0  0  0  0  0  0  0  0
    1.2061   -2.0904    1.4362 H   0  0  0  0  0  0  0  0  0  0  0  0
    3.6320   -2.0560    3.2072 H   0  0  0  0  0  0  0  0  0  0  0  0
    0.3608   -3.6763    2.4793 H   0  0  0  0  0  0  0  0  0  0  0  0
    0.2606   -5.5863    6.3103 H   0  0  0  0  0  0  0  0  0  0  0  0
    3.6400   -3.1692    5.2254 H   0  0  0  0  0  0  0  0  0  0  0  0
    0.9911    2.2021    2.8600 H   0  0  0  0  0  0  0  0  0  0  0  0
   -0.1234    2.1493    0.3045 H   0  0  0  0  0  0  0  0  0  0  0  0
  1  2  2  0  0  0  0
  2  3  1  0  0  0  0
  2 14  1  0  0  0  0
  3  4  1  0  0  0  0
  3 16  1  0  0  0  0
  3 17  1  0  0  0  0
  4  5  1  0  0  0  0
  4 18  1  0  0  0  0
  4 19  1  0  0  0  0
  5  6  1  0  0  0  0
  5 20  1  0  0  0  0
  6  7  1  0  0  0  0
  6 13  2  0  0  0  0
  7  8  2  0  0  0  0
  7 21  1  0  0  0  0
  8  9  1  0  0  0  0
  8 10  1  0  0  0  0
 10 11  2  0  0  0  0
 10 22  1  0  0  0  0
 11 12  1  0  0  0  0
 11 13  1  0  0  0  0
 13 23  1  0  0  0  0
 14 15  1  0  0  0  0
 14 24  1  0  0  0  0
 15 25  1  0  0  0  0
M  END
>  <Line_Number>
277


> <IC50>
1971

$$$$
