145949441.0
 OpenBabel09302502333D

 22 22  0  0  0  0  0  0  0  0999 V2000
    2.5367   -0.7859   -0.9264 O   0  0  0  0  0  0  0  0  0  0  0  0
    2.2356    0.0734   -0.1000 C   0  0  0  0  0  0  0  0  0  0  0  0
    2.9865    0.2848    1.2148 C   0  0  0  0  0  0  0  0  0  0  0  0
    2.0545    0.6934    2.2830 N   0  0  0  0  0  0  0  0  0  0  0  0
    2.5742    0.9299    3.5773 C   0  0  0  0  0  0  0  0  0  0  0  0
    3.8599    1.4540    3.7778 C   0  0  0  0  0  0  0  0  0  0  0  0
    4.3262    1.7679    5.0577 C   0  0  0  0  0  0  0  0  0  0  0  0
    3.5029    1.5920    6.1669 C   0  0  0  0  0  0  0  0  0  0  0  0
    2.2066    1.1065    5.9990 C   0  0  0  0  0  0  0  0  0  0  0  0
    1.2336    0.9326    7.4185 Cl  0  0  0  0  0  0  0  0  0  0  0  0
    1.7366    0.7857    4.7152 C   0  0  0  0  0  0  0  0  0  0  0  0
    0.1236    0.1720    4.4866 Cl  0  0  0  0  0  0  0  0  0  0  0  0
    1.2163    0.9719   -0.3090 N   0  0  0  0  0  0  0  0  0  0  0  0
    0.4033    0.7533   -1.4426 O   0  0  0  0  0  0  0  0  0  0  0  0
    3.7407    1.0537    1.0211 H   0  0  0  0  0  0  0  0  0  0  0  0
    3.4747   -0.6576    1.4866 H   0  0  0  0  0  0  0  0  0  0  0  0
    1.2629    0.0452    2.3638 H   0  0  0  0  0  0  0  0  0  0  0  0
    4.5287    1.6420    2.9434 H   0  0  0  0  0  0  0  0  0  0  0  0
    5.3319    2.1623    5.1859 H   0  0  0  0  0  0  0  0  0  0  0  0
    3.8745    1.8467    7.1565 H   0  0  0  0  0  0  0  0  0  0  0  0
    0.8236    1.5041    0.4646 H   0  0  0  0  0  0  0  0  0  0  0  0
    0.8098   -0.0430   -1.8488 H   0  0  0  0  0  0  0  0  0  0  0  0
  1  2  2  0  0  0  0
  2  3  1  0  0  0  0
  2 13  1  0  0  0  0
  3  4  1  0  0  0  0
  3 15  1  0  0  0  0
  3 16  1  0  0  0  0
  4  5  1  0  0  0  0
  4 17  1  0  0  0  0
  5  6  1  0  0  0  0
  5 11  2  0  0  0  0
  6  7  2  0  0  0  0
  6 18  1  0  0  0  0
  7  8  1  0  0  0  0
  7 19  1  0  0  0  0
  8  9  2  0  0  0  0
  8 20  1  0  0  0  0
  9 10  1  0  0  0  0
  9 11  1  0  0  0  0
 11 12  1  0  0  0  0
 13 14  1  0  0  0  0
 13 21  1  0  0  0  0
 14 22  1  0  0  0  0
M  END
>  <Line_Number>
278


> <IC50>
14800

$$$$
