145958315.0
 OpenBabel09302502333D

 22 22  0  0  0  0  0  0  0  0999 V2000
    2.5139    1.0736   -0.2711 O   0  0  0  0  0  0  0  0  0  0  0  0
    2.1430   -0.0619    0.0174 C   0  0  0  0  0  0  0  0  0  0  0  0
    2.9180   -1.3313   -0.3546 C   0  0  0  0  0  0  0  0  0  0  0  0
    1.9880   -2.4474   -0.6265 N   0  0  0  0  0  0  0  0  0  0  0  0
    2.5457   -3.6759   -1.0202 C   0  0  0  0  0  0  0  0  0  0  0  0
    3.7778   -4.1491   -0.5560 C   0  0  0  0  0  0  0  0  0  0  0  0
    4.2410   -5.4141   -0.9245 C   0  0  0  0  0  0  0  0  0  0  0  0
    5.4315   -5.8317   -0.4756 F   0  0  0  0  0  0  0  0  0  0  0  0
    3.4898   -6.2497   -1.7362 C   0  0  0  0  0  0  0  0  0  0  0  0
    2.2526   -5.8042   -2.1651 C   0  0  0  0  0  0  0  0  0  0  0  0
    1.4977   -6.5975   -2.9373 F   0  0  0  0  0  0  0  0  0  0  0  0
    1.7714   -4.5452   -1.8039 C   0  0  0  0  0  0  0  0  0  0  0  0
    1.0045   -0.3027    0.7444 N   0  0  0  0  0  0  0  0  0  0  0  0
    0.1855    0.8017    1.0575 O   0  0  0  0  0  0  0  0  0  0  0  0
    3.5808   -1.5526    0.4882 H   0  0  0  0  0  0  0  0  0  0  0  0
    3.5092   -1.1150   -1.2501 H   0  0  0  0  0  0  0  0  0  0  0  0
    1.2636   -2.1617   -1.2882 H   0  0  0  0  0  0  0  0  0  0  0  0
    4.4051   -3.5636    0.1067 H   0  0  0  0  0  0  0  0  0  0  0  0
    3.8560   -7.2298   -2.0141 H   0  0  0  0  0  0  0  0  0  0  0  0
    0.7846   -4.2552   -2.1533 H   0  0  0  0  0  0  0  0  0  0  0  0
    0.6350   -1.2397    0.8891 H   0  0  0  0  0  0  0  0  0  0  0  0
    0.6723    1.5505    0.6493 H   0  0  0  0  0  0  0  0  0  0  0  0
  1  2  2  0  0  0  0
  2  3  1  0  0  0  0
  2 13  1  0  0  0  0
  3  4  1  0  0  0  0
  3 15  1  0  0  0  0
  3 16  1  0  0  0  0
  4  5  1  0  0  0  0
  4 17  1  0  0  0  0
  5  6  1  0  0  0  0
  5 12  2  0  0  0  0
  6  7  2  0  0  0  0
  6 18  1  0  0  0  0
  7  8  1  0  0  0  0
  7  9  1  0  0  0  0
  9 10  2  0  0  0  0
  9 19  1  0  0  0  0
 10 11  1  0  0  0  0
 10 12  1  0  0  0  0
 12 20  1  0  0  0  0
 13 14  1  0  0  0  0
 13 21  1  0  0  0  0
 14 22  1  0  0  0  0
M  END
>  <Line_Number>
279


> <IC50>
5110

$$$$
