20035378.0
 OpenBabel09302502333D

 33 33  0  0  0  0  0  0  0  0999 V2000
    0.8808    0.1776   -0.1897 C   0  0  0  0  0  0  0  0  0  0  0  0
    2.4000    0.1438   -0.1554 C   0  0  0  0  0  0  0  0  0  0  0  0
    2.9521   -0.8500   -1.1727 C   0  0  0  0  0  0  0  0  0  0  0  0
    4.4806   -0.8919   -1.1439 C   0  0  0  0  0  0  0  0  0  0  0  0
    5.0002   -1.8920   -2.1730 C   0  0  0  0  0  0  0  0  0  0  0  0
    6.5293   -1.9676   -2.1868 C   0  0  0  0  0  0  0  0  0  0  0  0
    6.9827   -2.9733   -3.2162 C   0  0  0  0  0  0  0  0  0  0  0  0
    7.2318   -2.5722   -4.5412 C   0  0  0  0  0  0  0  0  0  0  0  0
    7.5277   -3.5150   -5.5347 C   0  0  0  0  0  0  0  0  0  0  0  0
    7.5663   -4.8647   -5.2042 C   0  0  0  0  0  0  0  0  0  0  0  0
    7.8064   -5.8346   -6.1362 O   0  0  0  0  0  0  0  0  0  0  0  0
    7.3421   -5.2698   -3.8939 C   0  0  0  0  0  0  0  0  0  0  0  0
    7.3620   -6.5976   -3.5606 O   0  0  0  0  0  0  0  0  0  0  0  0
    7.0617   -4.3314   -2.9061 C   0  0  0  0  0  0  0  0  0  0  0  0
    6.8332   -4.7671   -1.6290 O   0  0  0  0  0  0  0  0  0  0  0  0
    0.5012    0.8987    0.5402 H   0  0  0  0  0  0  0  0  0  0  0  0
    0.4615   -0.8046    0.0515 H   0  0  0  0  0  0  0  0  0  0  0  0
    0.5179    0.4712   -1.1800 H   0  0  0  0  0  0  0  0  0  0  0  0
    2.7332   -0.1308    0.8520 H   0  0  0  0  0  0  0  0  0  0  0  0
    2.7890    1.1466   -0.3661 H   0  0  0  0  0  0  0  0  0  0  0  0
    2.6111   -0.5747   -2.1787 H   0  0  0  0  0  0  0  0  0  0  0  0
    2.5541   -1.8505   -0.9620 H   0  0  0  0  0  0  0  0  0  0  0  0
    4.8242   -1.1784   -0.1429 H   0  0  0  0  0  0  0  0  0  0  0  0
    4.8849    0.1050   -1.3560 H   0  0  0  0  0  0  0  0  0  0  0  0
    4.6357   -1.6112   -3.1696 H   0  0  0  0  0  0  0  0  0  0  0  0
    4.5783   -2.8818   -1.9554 H   0  0  0  0  0  0  0  0  0  0  0  0
    6.9115   -2.2431   -1.1957 H   0  0  0  0  0  0  0  0  0  0  0  0
    6.9566   -0.9824   -2.4122 H   0  0  0  0  0  0  0  0  0  0  0  0
    7.1713   -1.5194   -4.8097 H   0  0  0  0  0  0  0  0  0  0  0  0
    7.7042   -3.1762   -6.5502 H   0  0  0  0  0  0  0  0  0  0  0  0
    7.9045   -5.4010   -7.0022 H   0  0  0  0  0  0  0  0  0  0  0  0
    7.5285   -7.0515   -4.4117 H   0  0  0  0  0  0  0  0  0  0  0  0
    6.9348   -5.7386   -1.6802 H   0  0  0  0  0  0  0  0  0  0  0  0
  1  2  1  0  0  0  0
  1 16  1  0  0  0  0
  1 17  1  0  0  0  0
  1 18  1  0  0  0  0
  2  3  1  0  0  0  0
  2 19  1  0  0  0  0
  2 20  1  0  0  0  0
  3  4  1  0  0  0  0
  3 21  1  0  0  0  0
  3 22  1  0  0  0  0
  4  5  1  0  0  0  0
  4 23  1  0  0  0  0
  4 24  1  0  0  0  0
  5  6  1  0  0  0  0
  5 25  1  0  0  0  0
  5 26  1  0  0  0  0
  6  7  1  0  0  0  0
  6 27  1  0  0  0  0
  6 28  1  0  0  0  0
  7  8  1  0  0  0  0
  7 14  2  0  0  0  0
  8  9  2  0  0  0  0
  8 29  1  0  0  0  0
  9 10  1  0  0  0  0
  9 30  1  0  0  0  0
 10 11  1  0  0  0  0
 10 12  2  0  0  0  0
 11 31  1  0  0  0  0
 12 13  1  0  0  0  0
 12 14  1  0  0  0  0
 13 32  1  0  0  0  0
 14 15  1  0  0  0  0
 15 33  1  0  0  0  0
M  END
>  <Line_Number>
27


> <IC50>
91000

$$$$
