145958008.0
 OpenBabel09302502333D

 25 25  0  0  0  0  0  0  0  0999 V2000
    1.2305   -0.3604   -0.4189 O   0  0  0  0  0  0  0  0  0  0  0  0
    2.3915   -0.1090   -0.0996 C   0  0  0  0  0  0  0  0  0  0  0  0
    3.1150    1.1721   -0.4453 C   0  0  0  0  0  0  0  0  0  0  0  0
    2.1381    2.1616   -1.0646 C   0  0  0  0  0  0  0  0  0  0  0  0
    2.8119    3.4140   -1.4211 N   0  0  0  0  0  0  0  0  0  0  0  0
    2.0032    4.4136   -2.0197 C   0  0  0  0  0  0  0  0  0  0  0  0
    0.6630    4.6035   -1.6479 C   0  0  0  0  0  0  0  0  0  0  0  0
   -0.1157    5.6225   -2.2071 C   0  0  0  0  0  0  0  0  0  0  0  0
    0.4410    6.5032   -3.1269 C   0  0  0  0  0  0  0  0  0  0  0  0
    1.7818    6.3727   -3.4800 C   0  0  0  0  0  0  0  0  0  0  0  0
    2.5564    5.3472   -2.9234 C   0  0  0  0  0  0  0  0  0  0  0  0
    4.2152    5.2311   -3.4089 Cl  0  0  0  0  0  0  0  0  0  0  0  0
    3.1546   -1.0053    0.6057 N   0  0  0  0  0  0  0  0  0  0  0  0
    2.5619   -2.2633    0.8572 O   0  0  0  0  0  0  0  0  0  0  0  0
    3.9267    0.9388   -1.1433 H   0  0  0  0  0  0  0  0  0  0  0  0
    3.5569    1.5927    0.4658 H   0  0  0  0  0  0  0  0  0  0  0  0
    1.3517    2.3481   -0.3257 H   0  0  0  0  0  0  0  0  0  0  0  0
    1.6749    1.7266   -1.9588 H   0  0  0  0  0  0  0  0  0  0  0  0
    3.6430    3.2752   -1.9999 H   0  0  0  0  0  0  0  0  0  0  0  0
    0.1888    3.9678   -0.9081 H   0  0  0  0  0  0  0  0  0  0  0  0
   -1.1563    5.7252   -1.9100 H   0  0  0  0  0  0  0  0  0  0  0  0
   -0.1668    7.2944   -3.5589 H   0  0  0  0  0  0  0  0  0  0  0  0
    2.2203    7.0718   -4.1873 H   0  0  0  0  0  0  0  0  0  0  0  0
    4.1600   -0.9392    0.7197 H   0  0  0  0  0  0  0  0  0  0  0  0
    1.6803   -2.1725    0.4319 H   0  0  0  0  0  0  0  0  0  0  0  0
  1  2  2  0  0  0  0
  2  3  1  0  0  0  0
  2 13  1  0  0  0  0
  3  4  1  0  0  0  0
  3 15  1  0  0  0  0
  3 16  1  0  0  0  0
  4  5  1  0  0  0  0
  4 17  1  0  0  0  0
  4 18  1  0  0  0  0
  5  6  1  0  0  0  0
  5 19  1  0  0  0  0
  6  7  1  0  0  0  0
  6 11  2  0  0  0  0
  7  8  2  0  0  0  0
  7 20  1  0  0  0  0
  8  9  1  0  0  0  0
  8 21  1  0  0  0  0
  9 10  2  0  0  0  0
  9 22  1  0  0  0  0
 10 11  1  0  0  0  0
 10 23  1  0  0  0  0
 11 12  1  0  0  0  0
 13 14  1  0  0  0  0
 13 24  1  0  0  0  0
 14 25  1  0  0  0  0
M  END
>  <Line_Number>
280


> <IC50>
2982

$$$$
