145951194.0
 OpenBabel09302502333D

 25 25  0  0  0  0  0  0  0  0999 V2000
    1.1007    0.1042   -0.1277 O   0  0  0  0  0  0  0  0  0  0  0  0
    2.3244    0.0119   -0.0779 C   0  0  0  0  0  0  0  0  0  0  0  0
    3.0751   -0.9222    0.8416 C   0  0  0  0  0  0  0  0  0  0  0  0
    2.1010   -1.6915    1.7254 C   0  0  0  0  0  0  0  0  0  0  0  0
    2.8309   -2.6082    2.6036 N   0  0  0  0  0  0  0  0  0  0  0  0
    2.0963   -3.4205    3.4926 C   0  0  0  0  0  0  0  0  0  0  0  0
    0.8042   -3.8780    3.1945 C   0  0  0  0  0  0  0  0  0  0  0  0
    0.1265   -4.7549    4.0490 C   0  0  0  0  0  0  0  0  0  0  0  0
    0.7437   -5.2123    5.2082 C   0  0  0  0  0  0  0  0  0  0  0  0
   -0.0915   -6.2990    6.2474 Cl  0  0  0  0  0  0  0  0  0  0  0  0
    2.0339   -4.8041    5.5230 C   0  0  0  0  0  0  0  0  0  0  0  0
    2.7042   -3.9264    4.6657 C   0  0  0  0  0  0  0  0  0  0  0  0
    4.3105   -3.4408    5.1015 Cl  0  0  0  0  0  0  0  0  0  0  0  0
    3.1410    0.7727   -0.8768 N   0  0  0  0  0  0  0  0  0  0  0  0
    2.4990    1.6203   -1.8059 O   0  0  0  0  0  0  0  0  0  0  0  0
    3.7717   -0.3374    1.4529 H   0  0  0  0  0  0  0  0  0  0  0  0
    3.6611   -1.6184    0.2295 H   0  0  0  0  0  0  0  0  0  0  0  0
    1.4181   -2.2474    1.0736 H   0  0  0  0  0  0  0  0  0  0  0  0
    1.5084   -0.9931    2.3290 H   0  0  0  0  0  0  0  0  0  0  0  0
    3.6042   -2.1660    3.1047 H   0  0  0  0  0  0  0  0  0  0  0  0
    0.2943   -3.5734    2.2855 H   0  0  0  0  0  0  0  0  0  0  0  0
   -0.8776   -5.0831    3.7915 H   0  0  0  0  0  0  0  0  0  0  0  0
    2.5180   -5.1684    6.4246 H   0  0  0  0  0  0  0  0  0  0  0  0
    4.1432    0.6521   -0.9748 H   0  0  0  0  0  0  0  0  0  0  0  0
    1.5478    1.4442   -1.6328 H   0  0  0  0  0  0  0  0  0  0  0  0
  1  2  2  0  0  0  0
  2  3  1  0  0  0  0
  2 14  1  0  0  0  0
  3  4  1  0  0  0  0
  3 16  1  0  0  0  0
  3 17  1  0  0  0  0
  4  5  1  0  0  0  0
  4 18  1  0  0  0  0
  4 19  1  0  0  0  0
  5  6  1  0  0  0  0
  5 20  1  0  0  0  0
  6  7  1  0  0  0  0
  6 12  2  0  0  0  0
  7  8  2  0  0  0  0
  7 21  1  0  0  0  0
  8  9  1  0  0  0  0
  8 22  1  0  0  0  0
  9 10  1  0  0  0  0
  9 11  2  0  0  0  0
 11 12  1  0  0  0  0
 11 23  1  0  0  0  0
 12 13  1  0  0  0  0
 14 15  1  0  0  0  0
 14 24  1  0  0  0  0
 15 25  1  0  0  0  0
M  END
>  <Line_Number>
281


> <IC50>
79

$$$$
