145955567.0
 OpenBabel09302502333D

 25 25  0  0  0  0  0  0  0  0999 V2000
    1.0597   -0.1147   -0.1229 O   0  0  0  0  0  0  0  0  0  0  0  0
    2.2725   -0.0827    0.0729 C   0  0  0  0  0  0  0  0  0  0  0  0
    3.0207    1.1166    0.6043 C   0  0  0  0  0  0  0  0  0  0  0  0
    2.0485    2.2470    0.9159 C   0  0  0  0  0  0  0  0  0  0  0  0
    2.7693    3.4129    1.4356 N   0  0  0  0  0  0  0  0  0  0  0  0
    2.0123    4.5643    1.7561 C   0  0  0  0  0  0  0  0  0  0  0  0
    0.6970    4.4806    2.2394 C   0  0  0  0  0  0  0  0  0  0  0  0
   -0.0114    5.6281    2.6078 C   0  0  0  0  0  0  0  0  0  0  0  0
   -1.6339    5.4814    3.1647 Cl  0  0  0  0  0  0  0  0  0  0  0  0
    0.5807    6.8836    2.5340 C   0  0  0  0  0  0  0  0  0  0  0  0
    1.9005    6.9931    2.1002 C   0  0  0  0  0  0  0  0  0  0  0  0
    2.6104    5.8449    1.7285 C   0  0  0  0  0  0  0  0  0  0  0  0
    4.2460    6.0427    1.1934 Cl  0  0  0  0  0  0  0  0  0  0  0  0
    3.0753   -1.1623   -0.1908 N   0  0  0  0  0  0  0  0  0  0  0  0
    2.4409   -2.3131   -0.7059 O   0  0  0  0  0  0  0  0  0  0  0  0
    3.7550    1.4344   -0.1445 H   0  0  0  0  0  0  0  0  0  0  0  0
    3.5626    0.8223    1.5108 H   0  0  0  0  0  0  0  0  0  0  0  0
    1.3317    1.8789    1.6581 H   0  0  0  0  0  0  0  0  0  0  0  0
    1.4942    2.5273    0.0115 H   0  0  0  0  0  0  0  0  0  0  0  0
    3.5697    3.6852    0.8608 H   0  0  0  0  0  0  0  0  0  0  0  0
    0.2014    3.5215    2.3448 H   0  0  0  0  0  0  0  0  0  0  0  0
    0.0266    7.7734    2.8214 H   0  0  0  0  0  0  0  0  0  0  0  0
    2.3715    7.9716    2.0556 H   0  0  0  0  0  0  0  0  0  0  0  0
    4.0813   -1.1963   -0.0731 H   0  0  0  0  0  0  0  0  0  0  0  0
    1.4997   -2.0339   -0.7513 H   0  0  0  0  0  0  0  0  0  0  0  0
  1  2  2  0  0  0  0
  2  3  1  0  0  0  0
  2 14  1  0  0  0  0
  3  4  1  0  0  0  0
  3 16  1  0  0  0  0
  3 17  1  0  0  0  0
  4  5  1  0  0  0  0
  4 18  1  0  0  0  0
  4 19  1  0  0  0  0
  5  6  1  0  0  0  0
  5 20  1  0  0  0  0
  6  7  1  0  0  0  0
  6 12  2  0  0  0  0
  7  8  2  0  0  0  0
  7 21  1  0  0  0  0
  8  9  1  0  0  0  0
  8 10  1  0  0  0  0
 10 11  2  0  0  0  0
 10 22  1  0  0  0  0
 11 12  1  0  0  0  0
 11 23  1  0  0  0  0
 12 13  1  0  0  0  0
 14 15  1  0  0  0  0
 14 24  1  0  0  0  0
 15 25  1  0  0  0  0
M  END
>  <Line_Number>
282


> <IC50>
14975

$$$$
