130006294.0
 OpenBabel09302502333D

 22 22  0  0  0  0  0  0  0  0999 V2000
    2.4703    0.6112    0.9465 O   0  0  0  0  0  0  0  0  0  0  0  0
    2.1057   -0.1058    0.0147 C   0  0  0  0  0  0  0  0  0  0  0  0
    2.8755   -0.2214   -1.2998 C   0  0  0  0  0  0  0  0  0  0  0  0
    2.0245   -0.7255   -2.3962 N   0  0  0  0  0  0  0  0  0  0  0  0
    2.6379   -0.8566   -3.6659 C   0  0  0  0  0  0  0  0  0  0  0  0
    3.9663   -1.2817   -3.8111 C   0  0  0  0  0  0  0  0  0  0  0  0
    4.5378   -1.4680   -5.0740 C   0  0  0  0  0  0  0  0  0  0  0  0
    3.7816   -1.2662   -6.2244 C   0  0  0  0  0  0  0  0  0  0  0  0
    2.4463   -0.8893   -6.1125 C   0  0  0  0  0  0  0  0  0  0  0  0
    1.8786   -0.6990   -4.8493 C   0  0  0  0  0  0  0  0  0  0  0  0
    0.2140   -0.2252   -4.7685 Cl  0  0  0  0  0  0  0  0  0  0  0  0
    1.0065   -0.9214    0.1102 N   0  0  0  0  0  0  0  0  0  0  0  0
    0.3780   -0.9934    1.3730 O   0  0  0  0  0  0  0  0  0  0  0  0
    3.6998   -0.9117   -1.0957 H   0  0  0  0  0  0  0  0  0  0  0  0
    3.2690    0.7686   -1.5547 H   0  0  0  0  0  0  0  0  0  0  0  0
    1.1779   -0.1567   -2.5034 H   0  0  0  0  0  0  0  0  0  0  0  0
    4.5885   -1.4900   -2.9461 H   0  0  0  0  0  0  0  0  0  0  0  0
    5.5765   -1.7831   -5.1538 H   0  0  0  0  0  0  0  0  0  0  0  0
    4.2293   -1.4151   -7.2036 H   0  0  0  0  0  0  0  0  0  0  0  0
    1.8515   -0.7465   -7.0120 H   0  0  0  0  0  0  0  0  0  0  0  0
    0.8474   -1.6780   -0.5513 H   0  0  0  0  0  0  0  0  0  0  0  0
    0.9332   -0.3968    1.9216 H   0  0  0  0  0  0  0  0  0  0  0  0
  1  2  2  0  0  0  0
  2  3  1  0  0  0  0
  2 12  1  0  0  0  0
  3  4  1  0  0  0  0
  3 14  1  0  0  0  0
  3 15  1  0  0  0  0
  4  5  1  0  0  0  0
  4 16  1  0  0  0  0
  5  6  1  0  0  0  0
  5 10  2  0  0  0  0
  6  7  2  0  0  0  0
  6 17  1  0  0  0  0
  7  8  1  0  0  0  0
  7 18  1  0  0  0  0
  8  9  2  0  0  0  0
  8 19  1  0  0  0  0
  9 10  1  0  0  0  0
  9 20  1  0  0  0  0
 10 11  1  0  0  0  0
 12 13  1  0  0  0  0
 12 21  1  0  0  0  0
 13 22  1  0  0  0  0
M  END
>  <Line_Number>
283


> <IC50>
58900

$$$$
