203276.0
 OpenBabel09302502333D

 22 22  0  0  0  0  0  0  0  0999 V2000
    2.3623    1.0864    0.1202 O   0  0  0  0  0  0  0  0  0  0  0  0
    2.1260   -0.1020    0.3333 C   0  0  0  0  0  0  0  0  0  0  0  0
    2.8871   -1.2447   -0.3360 C   0  0  0  0  0  0  0  0  0  0  0  0
    1.9839   -2.3870   -0.6062 N   0  0  0  0  0  0  0  0  0  0  0  0
    2.5501   -3.5205   -1.2188 C   0  0  0  0  0  0  0  0  0  0  0  0
    1.8892   -4.7453   -1.0565 C   0  0  0  0  0  0  0  0  0  0  0  0
    2.3306   -5.9019   -1.7084 C   0  0  0  0  0  0  0  0  0  0  0  0
    3.4305   -5.8463   -2.5633 C   0  0  0  0  0  0  0  0  0  0  0  0
    3.9257   -7.3047   -3.3436 Cl  0  0  0  0  0  0  0  0  0  0  0  0
    4.0782   -4.6263   -2.7695 C   0  0  0  0  0  0  0  0  0  0  0  0
    5.4182   -4.4595   -3.8479 Cl  0  0  0  0  0  0  0  0  0  0  0  0
    3.6320   -3.4718   -2.1062 C   0  0  0  0  0  0  0  0  0  0  0  0
    1.1574   -0.5094    1.2188 N   0  0  0  0  0  0  0  0  0  0  0  0
    0.3046    0.5018    1.7164 O   0  0  0  0  0  0  0  0  0  0  0  0
    3.7029   -1.5476    0.3295 H   0  0  0  0  0  0  0  0  0  0  0  0
    3.2944   -0.8435   -1.2699 H   0  0  0  0  0  0  0  0  0  0  0  0
    1.2064   -2.0768   -1.1970 H   0  0  0  0  0  0  0  0  0  0  0  0
    1.0220   -4.8076   -0.4025 H   0  0  0  0  0  0  0  0  0  0  0  0
    1.8079   -6.8404   -1.5439 H   0  0  0  0  0  0  0  0  0  0  0  0
    4.1404   -2.5362   -2.3177 H   0  0  0  0  0  0  0  0  0  0  0  0
    0.8019   -1.4624    1.1921 H   0  0  0  0  0  0  0  0  0  0  0  0
    0.6594    1.3120    1.2889 H   0  0  0  0  0  0  0  0  0  0  0  0
  1  2  2  0  0  0  0
  2  3  1  0  0  0  0
  2 13  1  0  0  0  0
  3  4  1  0  0  0  0
  3 15  1  0  0  0  0
  3 16  1  0  0  0  0
  4  5  1  0  0  0  0
  4 17  1  0  0  0  0
  5  6  1  0  0  0  0
  5 12  2  0  0  0  0
  6  7  2  0  0  0  0
  6 18  1  0  0  0  0
  7  8  1  0  0  0  0
  7 19  1  0  0  0  0
  8  9  1  0  0  0  0
  8 10  2  0  0  0  0
 10 11  1  0  0  0  0
 10 12  1  0  0  0  0
 12 20  1  0  0  0  0
 13 14  1  0  0  0  0
 13 21  1  0  0  0  0
 14 22  1  0  0  0  0
M  END
>  <Line_Number>
284


> <IC50>
21180

$$$$
