145971740.0
 OpenBabel09302502333D

 25 25  0  0  0  0  0  0  0  0999 V2000
    0.9535   -0.1772   -0.1111 O   0  0  0  0  0  0  0  0  0  0  0  0
    2.1789   -0.0821   -0.0059 C   0  0  0  0  0  0  0  0  0  0  0  0
    2.9416    1.2298   -0.0603 C   0  0  0  0  0  0  0  0  0  0  0  0
    1.9925    2.4091   -0.2368 C   0  0  0  0  0  0  0  0  0  0  0  0
    2.7469    3.6759   -0.2966 N   0  0  0  0  0  0  0  0  0  0  0  0
    2.0015    4.8587   -0.4571 C   0  0  0  0  0  0  0  0  0  0  0  0
    0.7062    5.0143    0.0520 C   0  0  0  0  0  0  0  0  0  0  0  0
    0.0199    6.2280   -0.0575 C   0  0  0  0  0  0  0  0  0  0  0  0
    0.6305    7.3248   -0.6588 C   0  0  0  0  0  0  0  0  0  0  0  0
   -0.2667    8.7978   -0.7434 Cl  0  0  0  0  0  0  0  0  0  0  0  0
    1.9323    7.2027   -1.1496 C   0  0  0  0  0  0  0  0  0  0  0  0
    2.7546    8.5151   -1.9185 Cl  0  0  0  0  0  0  0  0  0  0  0  0
    2.6147    5.9823   -1.0291 C   0  0  0  0  0  0  0  0  0  0  0  0
    2.9922   -1.1740    0.1680 N   0  0  0  0  0  0  0  0  0  0  0  0
    2.4141   -2.4598    0.2151 O   0  0  0  0  0  0  0  0  0  0  0  0
    3.6529    1.1927   -0.8928 H   0  0  0  0  0  0  0  0  0  0  0  0
    3.5159    1.3495    0.8659 H   0  0  0  0  0  0  0  0  0  0  0  0
    1.3009    2.4186    0.6114 H   0  0  0  0  0  0  0  0  0  0  0  0
    1.4139    2.2945   -1.1586 H   0  0  0  0  0  0  0  0  0  0  0  0
    3.5194    3.6416   -0.9599 H   0  0  0  0  0  0  0  0  0  0  0  0
    0.1966    4.1982    0.5551 H   0  0  0  0  0  0  0  0  0  0  0  0
   -0.9890    6.3028    0.3408 H   0  0  0  0  0  0  0  0  0  0  0  0
    3.6359    5.9135   -1.3986 H   0  0  0  0  0  0  0  0  0  0  0  0
    4.0021   -1.1315    0.2390 H   0  0  0  0  0  0  0  0  0  0  0  0
    1.4698   -2.2961   -0.0174 H   0  0  0  0  0  0  0  0  0  0  0  0
  1  2  2  0  0  0  0
  2  3  1  0  0  0  0
  2 14  1  0  0  0  0
  3  4  1  0  0  0  0
  3 16  1  0  0  0  0
  3 17  1  0  0  0  0
  4  5  1  0  0  0  0
  4 18  1  0  0  0  0
  4 19  1  0  0  0  0
  5  6  1  0  0  0  0
  5 20  1  0  0  0  0
  6  7  1  0  0  0  0
  6 13  2  0  0  0  0
  7  8  2  0  0  0  0
  7 21  1  0  0  0  0
  8  9  1  0  0  0  0
  8 22  1  0  0  0  0
  9 10  1  0  0  0  0
  9 11  2  0  0  0  0
 11 12  1  0  0  0  0
 11 13  1  0  0  0  0
 13 23  1  0  0  0  0
 14 15  1  0  0  0  0
 14 24  1  0  0  0  0
 15 25  1  0  0  0  0
M  END
>  <Line_Number>
285


> <IC50>
19805

$$$$
