129928412.0
 OpenBabel09302502333D

 22 22  0  0  0  0  0  0  0  0999 V2000
    2.3942   -0.4126   -1.1203 O   0  0  0  0  0  0  0  0  0  0  0  0
    2.1198    0.1963   -0.0868 C   0  0  0  0  0  0  0  0  0  0  0  0
    2.8854    0.0187    1.2231 C   0  0  0  0  0  0  0  0  0  0  0  0
    1.9774    0.1554    2.3845 N   0  0  0  0  0  0  0  0  0  0  0  0
    2.5633    0.0241    3.6602 C   0  0  0  0  0  0  0  0  0  0  0  0
    1.9000    0.6206    4.7443 C   0  0  0  0  0  0  0  0  0  0  0  0
    2.3620    0.4531    6.0535 C   0  0  0  0  0  0  0  0  0  0  0  0
    3.4728   -0.3434    6.2885 C   0  0  0  0  0  0  0  0  0  0  0  0
    3.9124   -0.5167    7.5415 F   0  0  0  0  0  0  0  0  0  0  0  0
    4.1227   -0.9784    5.2405 C   0  0  0  0  0  0  0  0  0  0  0  0
    3.6629   -0.8020    3.9315 C   0  0  0  0  0  0  0  0  0  0  0  0
    1.1031    1.1181   -0.0287 N   0  0  0  0  0  0  0  0  0  0  0  0
    0.2578    1.1835   -1.1590 O   0  0  0  0  0  0  0  0  0  0  0  0
    3.6750    0.7774    1.2603 H   0  0  0  0  0  0  0  0  0  0  0  0
    3.3288   -0.9817    1.1918 H   0  0  0  0  0  0  0  0  0  0  0  0
    1.2347   -0.5469    2.3257 H   0  0  0  0  0  0  0  0  0  0  0  0
    1.0217    1.2365    4.5688 H   0  0  0  0  0  0  0  0  0  0  0  0
    1.8569    0.9318    6.8858 H   0  0  0  0  0  0  0  0  0  0  0  0
    4.9757   -1.6177    5.4452 H   0  0  0  0  0  0  0  0  0  0  0  0
    4.1784   -1.3416    3.1436 H   0  0  0  0  0  0  0  0  0  0  0  0
    0.7212    1.4007    0.8712 H   0  0  0  0  0  0  0  0  0  0  0  0
    0.6654    0.5298   -1.7685 H   0  0  0  0  0  0  0  0  0  0  0  0
  1  2  2  0  0  0  0
  2  3  1  0  0  0  0
  2 12  1  0  0  0  0
  3  4  1  0  0  0  0
  3 14  1  0  0  0  0
  3 15  1  0  0  0  0
  4  5  1  0  0  0  0
  4 16  1  0  0  0  0
  5  6  1  0  0  0  0
  5 11  2  0  0  0  0
  6  7  2  0  0  0  0
  6 17  1  0  0  0  0
  7  8  1  0  0  0  0
  7 18  1  0  0  0  0
  8  9  1  0  0  0  0
  8 10  2  0  0  0  0
 10 11  1  0  0  0  0
 10 19  1  0  0  0  0
 11 20  1  0  0  0  0
 12 13  1  0  0  0  0
 12 21  1  0  0  0  0
 13 22  1  0  0  0  0
M  END
>  <Line_Number>
286


> <IC50>
7410

$$$$
