145954976.0
 OpenBabel09302502333D

 22 22  0  0  0  0  0  0  0  0999 V2000
    2.5935    1.3274   -0.4885 O   0  0  0  0  0  0  0  0  0  0  0  0
    2.1468    0.1980   -0.2851 C   0  0  0  0  0  0  0  0  0  0  0  0
    2.9183   -1.0815   -0.6062 C   0  0  0  0  0  0  0  0  0  0  0  0
    2.0063   -2.1318   -1.0983 N   0  0  0  0  0  0  0  0  0  0  0  0
    2.5519   -3.1150   -1.9547 C   0  0  0  0  0  0  0  0  0  0  0  0
    3.8735   -3.5670   -1.8323 C   0  0  0  0  0  0  0  0  0  0  0  0
    4.3775   -4.5510   -2.6895 C   0  0  0  0  0  0  0  0  0  0  0  0
    3.5519   -5.1308   -3.6494 C   0  0  0  0  0  0  0  0  0  0  0  0
    4.1847   -6.3280   -4.7097 Cl  0  0  0  0  0  0  0  0  0  0  0  0
    2.2200   -4.7517   -3.7537 C   0  0  0  0  0  0  0  0  0  0  0  0
    1.7247   -3.7623   -2.9024 C   0  0  0  0  0  0  0  0  0  0  0  0
    0.0612   -3.3049   -3.0671 Cl  0  0  0  0  0  0  0  0  0  0  0  0
    0.9077   -0.0055    0.2659 N   0  0  0  0  0  0  0  0  0  0  0  0
    0.0988    1.1315    0.4708 O   0  0  0  0  0  0  0  0  0  0  0  0
    3.4267   -1.4159    0.3049 H   0  0  0  0  0  0  0  0  0  0  0  0
    3.6618   -0.8200   -1.3676 H   0  0  0  0  0  0  0  0  0  0  0  0
    1.1810   -1.7410   -1.5617 H   0  0  0  0  0  0  0  0  0  0  0  0
    4.5377   -3.1563   -1.0765 H   0  0  0  0  0  0  0  0  0  0  0  0
    5.4154   -4.8619   -2.5980 H   0  0  0  0  0  0  0  0  0  0  0  0
    1.5719   -5.2150   -4.4914 H   0  0  0  0  0  0  0  0  0  0  0  0
    0.4937   -0.9235    0.4011 H   0  0  0  0  0  0  0  0  0  0  0  0
    0.6412    1.8526    0.0821 H   0  0  0  0  0  0  0  0  0  0  0  0
  1  2  2  0  0  0  0
  2  3  1  0  0  0  0
  2 13  1  0  0  0  0
  3  4  1  0  0  0  0
  3 15  1  0  0  0  0
  3 16  1  0  0  0  0
  4  5  1  0  0  0  0
  4 17  1  0  0  0  0
  5  6  1  0  0  0  0
  5 11  2  0  0  0  0
  6  7  2  0  0  0  0
  6 18  1  0  0  0  0
  7  8  1  0  0  0  0
  7 19  1  0  0  0  0
  8  9  1  0  0  0  0
  8 10  2  0  0  0  0
 10 11  1  0  0  0  0
 10 20  1  0  0  0  0
 11 12  1  0  0  0  0
 13 14  1  0  0  0  0
 13 21  1  0  0  0  0
 14 22  1  0  0  0  0
M  END
>  <Line_Number>
287


> <IC50>
66100

$$$$
