145959452.0
 OpenBabel09302502333D

 31 31  0  0  0  0  0  0  0  0999 V2000
    2.5103    1.0905   -0.0049 C   0  0  0  0  0  0  0  0  0  0  0  0
    1.2150    0.3329   -0.0073 C   0  0  0  0  0  0  0  0  0  0  0  0
   -0.0097    1.0057   -0.0319 C   0  0  0  0  0  0  0  0  0  0  0  0
   -1.2095    0.2909    0.0049 C   0  0  0  0  0  0  0  0  0  0  0  0
   -2.5309    1.0018   -0.0082 C   0  0  0  0  0  0  0  0  0  0  0  0
   -1.1689   -1.1119    0.0593 C   0  0  0  0  0  0  0  0  0  0  0  0
    0.0437   -1.8176    0.0450 C   0  0  0  0  0  0  0  0  0  0  0  0
    0.0139   -3.2183    0.1823 N   0  0  0  0  0  0  0  0  0  0  0  0
    1.0897   -3.9837   -0.4565 C   0  0  0  0  0  0  0  0  0  0  0  0
    0.8739   -5.4737   -0.2142 C   0  0  0  0  0  0  0  0  0  0  0  0
    1.9659   -6.2851   -0.8680 C   0  0  0  0  0  0  0  0  0  0  0  0
    2.9037   -5.8050   -1.5040 O   0  0  0  0  0  0  0  0  0  0  0  0
    1.8173   -7.6405   -0.7126 N   0  0  0  0  0  0  0  0  0  0  0  0
    2.8557   -8.4421   -1.2411 O   0  0  0  0  0  0  0  0  0  0  0  0
    1.2289   -1.0716    0.0366 C   0  0  0  0  0  0  0  0  0  0  0  0
    2.3438    2.1726   -0.0275 H   0  0  0  0  0  0  0  0  0  0  0  0
    3.1065    0.8235   -0.8832 H   0  0  0  0  0  0  0  0  0  0  0  0
    3.0793    0.8589    0.9014 H   0  0  0  0  0  0  0  0  0  0  0  0
   -0.0284    2.0929   -0.0629 H   0  0  0  0  0  0  0  0  0  0  0  0
   -2.4017    2.0882    0.0033 H   0  0  0  0  0  0  0  0  0  0  0  0
   -3.1167    0.7268    0.8734 H   0  0  0  0  0  0  0  0  0  0  0  0
   -3.0908    0.7386   -0.9111 H   0  0  0  0  0  0  0  0  0  0  0  0
   -2.1076   -1.6593    0.1071 H   0  0  0  0  0  0  0  0  0  0  0  0
   -0.9084   -3.5740   -0.0595 H   0  0  0  0  0  0  0  0  0  0  0  0
    2.0658   -3.7037   -0.0471 H   0  0  0  0  0  0  0  0  0  0  0  0
    1.0991   -3.7779   -1.5348 H   0  0  0  0  0  0  0  0  0  0  0  0
   -0.0927   -5.7920   -0.6201 H   0  0  0  0  0  0  0  0  0  0  0  0
    0.8765   -5.6867    0.8614 H   0  0  0  0  0  0  0  0  0  0  0  0
    1.1999   -8.0781   -0.0397 H   0  0  0  0  0  0  0  0  0  0  0  0
    3.4522   -7.7742   -1.6503 H   0  0  0  0  0  0  0  0  0  0  0  0
    2.1930   -1.5690    0.0857 H   0  0  0  0  0  0  0  0  0  0  0  0
  1  2  1  0  0  0  0
  1 16  1  0  0  0  0
  1 17  1  0  0  0  0
  1 18  1  0  0  0  0
  2  3  1  0  0  0  0
  2 15  2  0  0  0  0
  3  4  2  0  0  0  0
  3 19  1  0  0  0  0
  4  5  1  0  0  0  0
  4  6  1  0  0  0  0
  5 20  1  0  0  0  0
  5 21  1  0  0  0  0
  5 22  1  0  0  0  0
  6  7  2  0  0  0  0
  6 23  1  0  0  0  0
  7  8  1  0  0  0  0
  7 15  1  0  0  0  0
  8  9  1  0  0  0  0
  8 24  1  0  0  0  0
  9 10  1  0  0  0  0
  9 25  1  0  0  0  0
  9 26  1  0  0  0  0
 10 11  1  0  0  0  0
 10 27  1  0  0  0  0
 10 28  1  0  0  0  0
 11 12  2  0  0  0  0
 11 13  1  0  0  0  0
 13 14  1  0  0  0  0
 13 29  1  0  0  0  0
 14 30  1  0  0  0  0
 15 31  1  0  0  0  0
M  END
>  <Line_Number>
288


> <IC50>
2930

$$$$
