46769547.0
 OpenBabel09302502333D

 25 25  0  0  0  0  0  0  0  0999 V2000
    2.4668   -0.0321   -0.0153 C   0  0  0  0  0  0  0  0  0  0  0  0
    0.9688    0.0114   -0.0146 C   0  0  0  0  0  0  0  0  0  0  0  0
    0.2780    1.2229    0.0030 C   0  0  0  0  0  0  0  0  0  0  0  0
   -1.1197    1.2372   -0.0020 C   0  0  0  0  0  0  0  0  0  0  0  0
   -1.8660    0.0552   -0.0562 C   0  0  0  0  0  0  0  0  0  0  0  0
   -3.2669    0.1636    0.0205 N   0  0  0  0  0  0  0  0  0  0  0  0
   -4.0675   -0.9600   -0.5103 C   0  0  0  0  0  0  0  0  0  0  0  0
   -5.5598   -0.7393   -0.2556 C   0  0  0  0  0  0  0  0  0  0  0  0
   -6.3829   -1.6541   -0.2218 O   0  0  0  0  0  0  0  0  0  0  0  0
   -5.9192    0.5714   -0.0806 N   0  0  0  0  0  0  0  0  0  0  0  0
   -7.2896    0.8506    0.0989 O   0  0  0  0  0  0  0  0  0  0  0  0
   -1.1671   -1.1546   -0.0349 C   0  0  0  0  0  0  0  0  0  0  0  0
    0.2313   -1.1787   -0.0231 C   0  0  0  0  0  0  0  0  0  0  0  0
    2.8959    0.9747   -0.0004 H   0  0  0  0  0  0  0  0  0  0  0  0
    2.8278   -0.5366   -0.9170 H   0  0  0  0  0  0  0  0  0  0  0  0
    2.8315   -0.5670    0.8677 H   0  0  0  0  0  0  0  0  0  0  0  0
    0.8186    2.1659    0.0196 H   0  0  0  0  0  0  0  0  0  0  0  0
   -1.6351    2.1984    0.0209 H   0  0  0  0  0  0  0  0  0  0  0  0
   -3.5049    0.3376    1.0003 H   0  0  0  0  0  0  0  0  0  0  0  0
   -3.8064   -1.9036   -0.0223 H   0  0  0  0  0  0  0  0  0  0  0  0
   -3.9221   -1.0441   -1.5933 H   0  0  0  0  0  0  0  0  0  0  0  0
   -5.2846    1.3388   -0.2884 H   0  0  0  0  0  0  0  0  0  0  0  0
   -7.6890   -0.0469    0.0947 H   0  0  0  0  0  0  0  0  0  0  0  0
   -1.6792   -2.1108   -0.0101 H   0  0  0  0  0  0  0  0  0  0  0  0
    0.7477   -2.1370   -0.0156 H   0  0  0  0  0  0  0  0  0  0  0  0
  1  2  1  0  0  0  0
  1 14  1  0  0  0  0
  1 15  1  0  0  0  0
  1 16  1  0  0  0  0
  2  3  1  0  0  0  0
  2 13  2  0  0  0  0
  3  4  2  0  0  0  0
  3 17  1  0  0  0  0
  4  5  1  0  0  0  0
  4 18  1  0  0  0  0
  5  6  1  0  0  0  0
  5 12  2  0  0  0  0
  6  7  1  0  0  0  0
  6 19  1  0  0  0  0
  7  8  1  0  0  0  0
  7 20  1  0  0  0  0
  7 21  1  0  0  0  0
  8  9  2  0  0  0  0
  8 10  1  0  0  0  0
 10 11  1  0  0  0  0
 10 22  1  0  0  0  0
 11 23  1  0  0  0  0
 12 13  1  0  0  0  0
 12 24  1  0  0  0  0
 13 25  1  0  0  0  0
M  END
>  <Line_Number>
289


> <IC50>
3910

$$$$
