49844560.0
 OpenBabel09302502333D

 30 31  0  0  0  0  0  0  0  0999 V2000
    1.7531   -1.4213    0.0984 O   0  0  0  0  0  0  0  0  0  0  0  0
    0.5637   -0.7486    0.0636 C   0  0  0  0  0  0  0  0  0  0  0  0
   -0.5405   -1.3104   -0.5674 C   0  0  0  0  0  0  0  0  0  0  0  0
   -1.7544   -0.6132   -0.5951 C   0  0  0  0  0  0  0  0  0  0  0  0
   -1.8740    0.6411    0.0202 C   0  0  0  0  0  0  0  0  0  0  0  0
   -3.1587    1.4516    0.0080 C   0  0  0  0  0  0  0  0  0  0  0  0
   -4.4613    0.6425   -0.0083 C   0  0  0  0  0  0  0  0  0  0  0  0
   -5.7237    1.4751    0.0186 C   0  0  0  0  0  0  0  0  0  0  0  0
   -6.2926    1.8151    1.2482 C   0  0  0  0  0  0  0  0  0  0  0  0
   -7.4769    2.5563    1.3175 C   0  0  0  0  0  0  0  0  0  0  0  0
   -8.1085    2.9656    0.1431 C   0  0  0  0  0  0  0  0  0  0  0  0
   -7.5542    2.6325   -1.0855 C   0  0  0  0  0  0  0  0  0  0  0  0
   -8.4065    3.1871   -2.6825 Br  0  0  0  0  0  0  0  0  0  0  0  0
   -6.3656    1.8910   -1.1619 C   0  0  0  0  0  0  0  0  0  0  0  0
   -0.7413    1.2005    0.6366 C   0  0  0  0  0  0  0  0  0  0  0  0
    0.4693    0.5046    0.6616 C   0  0  0  0  0  0  0  0  0  0  0  0
    1.5620    1.0465    1.2761 O   0  0  0  0  0  0  0  0  0  0  0  0
    1.6423   -2.2724   -0.3539 H   0  0  0  0  0  0  0  0  0  0  0  0
   -0.4825   -2.2846   -1.0409 H   0  0  0  0  0  0  0  0  0  0  0  0
   -2.5958   -1.0804   -1.0994 H   0  0  0  0  0  0  0  0  0  0  0  0
   -3.1265    2.1133   -0.8666 H   0  0  0  0  0  0  0  0  0  0  0  0
   -3.1523    2.0912    0.9008 H   0  0  0  0  0  0  0  0  0  0  0  0
   -4.4782   -0.0303    0.8601 H   0  0  0  0  0  0  0  0  0  0  0  0
   -4.4925    0.0041   -0.8967 H   0  0  0  0  0  0  0  0  0  0  0  0
   -5.8179    1.4975    2.1782 H   0  0  0  0  0  0  0  0  0  0  0  0
   -7.9005    2.8089    2.2835 H   0  0  0  0  0  0  0  0  0  0  0  0
   -9.0287    3.5413    0.2052 H   0  0  0  0  0  0  0  0  0  0  0  0
   -5.9617    1.6422   -2.1359 H   0  0  0  0  0  0  0  0  0  0  0  0
   -0.8169    2.1772    1.1057 H   0  0  0  0  0  0  0  0  0  0  0  0
    1.3300    1.9216    1.6210 H   0  0  0  0  0  0  0  0  0  0  0  0
  1  2  1  0  0  0  0
  1 18  1  0  0  0  0
  2  3  1  0  0  0  0
  2 16  2  0  0  0  0
  3  4  2  0  0  0  0
  3 19  1  0  0  0  0
  4  5  1  0  0  0  0
  4 20  1  0  0  0  0
  5  6  1  0  0  0  0
  5 15  2  0  0  0  0
  6  7  1  0  0  0  0
  6 21  1  0  0  0  0
  6 22  1  0  0  0  0
  7  8  1  0  0  0  0
  7 23  1  0  0  0  0
  7 24  1  0  0  0  0
  8  9  1  0  0  0  0
  8 14  2  0  0  0  0
  9 10  2  0  0  0  0
  9 25  1  0  0  0  0
 10 11  1  0  0  0  0
 10 26  1  0  0  0  0
 11 12  2  0  0  0  0
 11 27  1  0  0  0  0
 12 13  1  0  0  0  0
 12 14  1  0  0  0  0
 14 28  1  0  0  0  0
 15 16  1  0  0  0  0
 15 29  1  0  0  0  0
 16 17  1  0  0  0  0
 17 30  1  0  0  0  0
M  END
>  <Line_Number>
28


> <IC50>
52900

$$$$
