145956231.0
 OpenBabel09302502333D

 24 24  0  0  0  0  0  0  0  0999 V2000
    2.6991   -0.7174    0.7566 O   0  0  0  0  0  0  0  0  0  0  0  0
    2.3586    0.3913    0.3457 C   0  0  0  0  0  0  0  0  0  0  0  0
    3.0555    1.1043   -0.8139 C   0  0  0  0  0  0  0  0  0  0  0  0
    2.1754    2.1239   -1.4262 N   0  0  0  0  0  0  0  0  0  0  0  0
    2.7337    2.9238   -2.4390 C   0  0  0  0  0  0  0  0  0  0  0  0
    3.7399    2.4893   -3.3124 C   0  0  0  0  0  0  0  0  0  0  0  0
    4.2112    3.3104   -4.3435 C   0  0  0  0  0  0  0  0  0  0  0  0
    3.6666    4.5773   -4.5338 C   0  0  0  0  0  0  0  0  0  0  0  0
    2.6298    5.0035   -3.6983 C   0  0  0  0  0  0  0  0  0  0  0  0
    2.0338    6.3291   -3.8993 N   0  3  0  0  0  0  0  0  0  0  0  0
    2.5016    7.0385   -4.8029 O   0  0  0  0  0  0  0  0  0  0  0  0
    1.0987    6.6596   -3.1602 O   0  5  0  0  0  0  0  0  0  0  0  0
    2.1515    4.1766   -2.6700 C   0  0  0  0  0  0  0  0  0  0  0  0
    1.3357    1.1001    0.9197 N   0  0  0  0  0  0  0  0  0  0  0  0
    0.7079    0.5374    2.0497 O   0  0  0  0  0  0  0  0  0  0  0  0
    3.3271    0.3368   -1.5456 H   0  0  0  0  0  0  0  0  0  0  0  0
    3.9587    1.5771   -0.4108 H   0  0  0  0  0  0  0  0  0  0  0  0
    1.3329    1.6771   -1.7999 H   0  0  0  0  0  0  0  0  0  0  0  0
    4.1770    1.4988   -3.2224 H   0  0  0  0  0  0  0  0  0  0  0  0
    5.0010    2.9538   -5.0017 H   0  0  0  0  0  0  0  0  0  0  0  0
    4.0490    5.2077   -5.3337 H   0  0  0  0  0  0  0  0  0  0  0  0
    1.3397    4.5084   -2.0256 H   0  0  0  0  0  0  0  0  0  0  0  0
    1.1572    2.0759    0.6953 H   0  0  0  0  0  0  0  0  0  0  0  0
    1.2011   -0.3032    2.1704 H   0  0  0  0  0  0  0  0  0  0  0  0
  1  2  2  0  0  0  0
  2  3  1  0  0  0  0
  2 14  1  0  0  0  0
  3  4  1  0  0  0  0
  3 16  1  0  0  0  0
  3 17  1  0  0  0  0
  4  5  1  0  0  0  0
  4 18  1  0  0  0  0
  5  6  1  0  0  0  0
  5 13  2  0  0  0  0
  6  7  2  0  0  0  0
  6 19  1  0  0  0  0
  7  8  1  0  0  0  0
  7 20  1  0  0  0  0
  8  9  2  0  0  0  0
  8 21  1  0  0  0  0
  9 10  1  0  0  0  0
  9 13  1  0  0  0  0
 10 11  2  0  0  0  0
 10 12  1  0  0  0  0
 13 22  1  0  0  0  0
 14 15  1  0  0  0  0
 14 23  1  0  0  0  0
 15 24  1  0  0  0  0
M  CHG  2  10   1  12  -1
M  END
>  <Line_Number>
290


> <IC50>
8210

$$$$
