46769546.0
 OpenBabel09302502333D

 22 22  0  0  0  0  0  0  0  0999 V2000
    2.4390    0.2318   -1.0481 O   0  0  0  0  0  0  0  0  0  0  0  0
    2.1835    0.2909    0.1543 C   0  0  0  0  0  0  0  0  0  0  0  0
    2.9631   -0.4829    1.2141 C   0  0  0  0  0  0  0  0  0  0  0  0
    2.0853   -0.8949    2.3337 N   0  0  0  0  0  0  0  0  0  0  0  0
    2.7193   -1.5788    3.3930 C   0  0  0  0  0  0  0  0  0  0  0  0
    2.1083   -1.5434    4.6543 C   0  0  0  0  0  0  0  0  0  0  0  0
    2.6378   -2.2573    5.7355 C   0  0  0  0  0  0  0  0  0  0  0  0
    3.7686   -3.0452    5.5515 C   0  0  0  0  0  0  0  0  0  0  0  0
    4.4310   -3.9243    6.8747 Cl  0  0  0  0  0  0  0  0  0  0  0  0
    4.3607   -3.1376    4.2975 C   0  0  0  0  0  0  0  0  0  0  0  0
    3.8301   -2.4159    3.2226 C   0  0  0  0  0  0  0  0  0  0  0  0
    1.1831    1.0900    0.6509 N   0  0  0  0  0  0  0  0  0  0  0  0
    0.3360    1.6915   -0.3085 O   0  0  0  0  0  0  0  0  0  0  0  0
    3.7689    0.1652    1.5771 H   0  0  0  0  0  0  0  0  0  0  0  0
    3.3835   -1.3592    0.7107 H   0  0  0  0  0  0  0  0  0  0  0  0
    1.3415   -1.5054    1.9848 H   0  0  0  0  0  0  0  0  0  0  0  0
    1.2190   -0.9359    4.8086 H   0  0  0  0  0  0  0  0  0  0  0  0
    2.1627   -2.1936    6.7101 H   0  0  0  0  0  0  0  0  0  0  0  0
    5.2297   -3.7718    4.1415 H   0  0  0  0  0  0  0  0  0  0  0  0
    4.3054   -2.5418    2.2554 H   0  0  0  0  0  0  0  0  0  0  0  0
    0.8127    0.9329    1.5852 H   0  0  0  0  0  0  0  0  0  0  0  0
    0.7302    1.3929   -1.1579 H   0  0  0  0  0  0  0  0  0  0  0  0
  1  2  2  0  0  0  0
  2  3  1  0  0  0  0
  2 12  1  0  0  0  0
  3  4  1  0  0  0  0
  3 14  1  0  0  0  0
  3 15  1  0  0  0  0
  4  5  1  0  0  0  0
  4 16  1  0  0  0  0
  5  6  1  0  0  0  0
  5 11  2  0  0  0  0
  6  7  2  0  0  0  0
  6 17  1  0  0  0  0
  7  8  1  0  0  0  0
  7 18  1  0  0  0  0
  8  9  1  0  0  0  0
  8 10  2  0  0  0  0
 10 11  1  0  0  0  0
 10 19  1  0  0  0  0
 11 20  1  0  0  0  0
 12 13  1  0  0  0  0
 12 21  1  0  0  0  0
 13 22  1  0  0  0  0
M  END
>  <Line_Number>
291


> <IC50>
2470

$$$$
