145959786.0
 OpenBabel09302502333D

 29 30  0  0  0  0  0  0  0  0999 V2000
    5.2012   -0.4771    0.7714 O   0  0  0  0  0  0  0  0  0  0  0  0
    4.3806   -0.0106    1.5599 C   0  0  0  0  0  0  0  0  0  0  0  0
    3.0431    0.5979    1.1233 C   0  0  0  0  0  0  0  0  0  0  0  0
    2.1935    0.9725    2.2782 N   0  0  0  0  0  0  0  0  0  0  0  0
    2.2573    2.3503    2.7685 C   0  0  0  0  0  0  0  0  0  0  0  0
    0.9206    3.0512    2.5968 C   0  0  0  0  0  0  0  0  0  0  0  0
   -0.1628    2.2957    3.3538 C   0  0  0  0  0  0  0  0  0  0  0  0
   -0.0837    0.8058    3.1354 C   0  0  0  0  0  0  0  0  0  0  0  0
   -1.1932    0.0207    3.5010 C   0  0  0  0  0  0  0  0  0  0  0  0
   -1.1690   -1.3591    3.3335 C   0  0  0  0  0  0  0  0  0  0  0  0
   -0.0351   -1.9658    2.8079 C   0  0  0  0  0  0  0  0  0  0  0  0
    1.0726   -1.1910    2.4497 C   0  0  0  0  0  0  0  0  0  0  0  0
    1.0772    0.2044    2.6049 C   0  0  0  0  0  0  0  0  0  0  0  0
    4.5962    0.0122    2.9169 N   0  0  0  0  0  0  0  0  0  0  0  0
    5.7251   -0.6735    3.4121 O   0  0  0  0  0  0  0  0  0  0  0  0
    2.5400   -0.1209    0.4676 H   0  0  0  0  0  0  0  0  0  0  0  0
    3.2603    1.4827    0.5139 H   0  0  0  0  0  0  0  0  0  0  0  0
    3.0381    2.9155    2.2469 H   0  0  0  0  0  0  0  0  0  0  0  0
    2.5420    2.3373    3.8286 H   0  0  0  0  0  0  0  0  0  0  0  0
    0.6643    3.1040    1.5307 H   0  0  0  0  0  0  0  0  0  0  0  0
    0.9812    4.0803    2.9678 H   0  0  0  0  0  0  0  0  0  0  0  0
   -1.1449    2.6725    3.0320 H   0  0  0  0  0  0  0  0  0  0  0  0
   -0.0690    2.4932    4.4281 H   0  0  0  0  0  0  0  0  0  0  0  0
   -2.0806    0.4915    3.9170 H   0  0  0  0  0  0  0  0  0  0  0  0
   -2.0294   -1.9596    3.6171 H   0  0  0  0  0  0  0  0  0  0  0  0
   -0.0034   -3.0447    2.6828 H   0  0  0  0  0  0  0  0  0  0  0  0
    1.9478   -1.7135    2.0717 H   0  0  0  0  0  0  0  0  0  0  0  0
    3.7931    0.1266    3.5350 H   0  0  0  0  0  0  0  0  0  0  0  0
    6.0856   -1.1042    2.6082 H   0  0  0  0  0  0  0  0  0  0  0  0
  1  2  2  0  0  0  0
  2  3  1  0  0  0  0
  2 14  1  0  0  0  0
  3  4  1  0  0  0  0
  3 16  1  0  0  0  0
  3 17  1  0  0  0  0
  4  5  1  0  0  0  0
  4 13  1  0  0  0  0
  5  6  1  0  0  0  0
  5 18  1  0  0  0  0
  5 19  1  0  0  0  0
  6  7  1  0  0  0  0
  6 20  1  0  0  0  0
  6 21  1  0  0  0  0
  7  8  1  0  0  0  0
  7 22  1  0  0  0  0
  7 23  1  0  0  0  0
  8  9  1  0  0  0  0
  8 13  2  0  0  0  0
  9 10  2  0  0  0  0
  9 24  1  0  0  0  0
 10 11  1  0  0  0  0
 10 25  1  0  0  0  0
 11 12  2  0  0  0  0
 11 26  1  0  0  0  0
 12 13  1  0  0  0  0
 12 27  1  0  0  0  0
 14 15  1  0  0  0  0
 14 28  1  0  0  0  0
 15 29  1  0  0  0  0
M  END
>  <Line_Number>
292


> <IC50>
71100

$$$$
