145956007.0
 OpenBabel09302502333D

 25 25  0  0  0  0  0  0  0  0999 V2000
    0.5532   -0.5533   -0.2844 O   0  0  0  0  0  0  0  0  0  0  0  0
    1.0319   -1.2705   -1.1572 C   0  0  0  0  0  0  0  0  0  0  0  0
    1.8049   -0.7664   -2.3524 C   0  0  0  0  0  0  0  0  0  0  0  0
    1.9792    0.7464   -2.3017 C   0  0  0  0  0  0  0  0  0  0  0  0
    2.6534    1.2267   -3.5132 N   0  0  0  0  0  0  0  0  0  0  0  0
    1.9272    1.5528   -4.6583 C   0  0  0  0  0  0  0  0  0  0  0  0
    0.6322    2.0836   -4.6186 C   0  0  0  0  0  0  0  0  0  0  0  0
   -0.0291    2.4515   -5.7905 C   0  0  0  0  0  0  0  0  0  0  0  0
   -1.2705    2.9488   -5.7116 F   0  0  0  0  0  0  0  0  0  0  0  0
    0.5758    2.3225   -7.0281 C   0  0  0  0  0  0  0  0  0  0  0  0
    1.8694    1.8321   -7.0761 C   0  0  0  0  0  0  0  0  0  0  0  0
    2.4832    1.7122   -8.2606 F   0  0  0  0  0  0  0  0  0  0  0  0
    2.5478    1.4633   -5.9127 C   0  0  0  0  0  0  0  0  0  0  0  0
    0.9058   -2.6372   -1.1296 N   0  0  0  0  0  0  0  0  0  0  0  0
    0.1396   -3.1820   -0.0766 O   0  0  0  0  0  0  0  0  0  0  0  0
    1.2664   -1.0642   -3.2606 H   0  0  0  0  0  0  0  0  0  0  0  0
    2.7864   -1.2549   -2.3665 H   0  0  0  0  0  0  0  0  0  0  0  0
    2.6088    1.0094   -1.4431 H   0  0  0  0  0  0  0  0  0  0  0  0
    1.0240    1.2486   -2.1248 H   0  0  0  0  0  0  0  0  0  0  0  0
    3.5294    0.7465   -3.7044 H   0  0  0  0  0  0  0  0  0  0  0  0
    0.1118    2.2558   -3.6834 H   0  0  0  0  0  0  0  0  0  0  0  0
    0.0557    2.6129   -7.9323 H   0  0  0  0  0  0  0  0  0  0  0  0
    3.5674    1.1012   -6.0078 H   0  0  0  0  0  0  0  0  0  0  0  0
    1.1770   -3.2661   -1.8775 H   0  0  0  0  0  0  0  0  0  0  0  0
   -0.1430   -2.3815    0.4179 H   0  0  0  0  0  0  0  0  0  0  0  0
  1  2  2  0  0  0  0
  2  3  1  0  0  0  0
  2 14  1  0  0  0  0
  3  4  1  0  0  0  0
  3 16  1  0  0  0  0
  3 17  1  0  0  0  0
  4  5  1  0  0  0  0
  4 18  1  0  0  0  0
  4 19  1  0  0  0  0
  5  6  1  0  0  0  0
  5 20  1  0  0  0  0
  6  7  1  0  0  0  0
  6 13  2  0  0  0  0
  7  8  2  0  0  0  0
  7 21  1  0  0  0  0
  8  9  1  0  0  0  0
  8 10  1  0  0  0  0
 10 11  2  0  0  0  0
 10 22  1  0  0  0  0
 11 12  1  0  0  0  0
 11 13  1  0  0  0  0
 13 23  1  0  0  0  0
 14 15  1  0  0  0  0
 14 24  1  0  0  0  0
 15 25  1  0  0  0  0
M  END
>  <Line_Number>
293


> <IC50>
1520

$$$$
