145950151.0
 OpenBabel09302502333D

 22 22  0  0  0  0  0  0  0  0999 V2000
    2.4259   -0.2673    1.0137 O   0  0  0  0  0  0  0  0  0  0  0  0
    2.1881   -0.1620   -0.1894 C   0  0  0  0  0  0  0  0  0  0  0  0
    2.9904    0.7241   -1.1385 C   0  0  0  0  0  0  0  0  0  0  0  0
    2.1048    1.3537   -2.1405 N   0  0  0  0  0  0  0  0  0  0  0  0
    2.7173    2.2301   -3.0586 C   0  0  0  0  0  0  0  0  0  0  0  0
    4.0155    2.0416   -3.5519 C   0  0  0  0  0  0  0  0  0  0  0  0
    4.5671    2.9108   -4.4991 C   0  0  0  0  0  0  0  0  0  0  0  0
    3.8141    3.9694   -4.9976 C   0  0  0  0  0  0  0  0  0  0  0  0
    2.5045    4.1356   -4.5610 C   0  0  0  0  0  0  0  0  0  0  0  0
    1.4632    5.5546   -5.2542 Br  0  0  0  0  0  0  0  0  0  0  0  0
    1.9526    3.2662   -3.6173 C   0  0  0  0  0  0  0  0  0  0  0  0
    1.1939   -0.8823   -0.8074 N   0  0  0  0  0  0  0  0  0  0  0  0
    0.3343   -1.6237    0.0331 O   0  0  0  0  0  0  0  0  0  0  0  0
    3.7388    0.0775   -1.6090 H   0  0  0  0  0  0  0  0  0  0  0  0
    3.4874    1.4984   -0.5431 H   0  0  0  0  0  0  0  0  0  0  0  0
    1.3259    1.8314   -1.6832 H   0  0  0  0  0  0  0  0  0  0  0  0
    4.6303    1.2117   -3.2171 H   0  0  0  0  0  0  0  0  0  0  0  0
    5.5832    2.7528   -4.8514 H   0  0  0  0  0  0  0  0  0  0  0  0
    4.2497    4.6431   -5.7308 H   0  0  0  0  0  0  0  0  0  0  0  0
    0.9201    3.4071   -3.3057 H   0  0  0  0  0  0  0  0  0  0  0  0
    0.8546   -0.6214   -1.7309 H   0  0  0  0  0  0  0  0  0  0  0  0
    0.7060   -1.4500    0.9256 H   0  0  0  0  0  0  0  0  0  0  0  0
  1  2  2  0  0  0  0
  2  3  1  0  0  0  0
  2 12  1  0  0  0  0
  3  4  1  0  0  0  0
  3 14  1  0  0  0  0
  3 15  1  0  0  0  0
  4  5  1  0  0  0  0
  4 16  1  0  0  0  0
  5  6  1  0  0  0  0
  5 11  2  0  0  0  0
  6  7  2  0  0  0  0
  6 17  1  0  0  0  0
  7  8  1  0  0  0  0
  7 18  1  0  0  0  0
  8  9  2  0  0  0  0
  8 19  1  0  0  0  0
  9 10  1  0  0  0  0
  9 11  1  0  0  0  0
 11 20  1  0  0  0  0
 12 13  1  0  0  0  0
 12 21  1  0  0  0  0
 13 22  1  0  0  0  0
M  END
>  <Line_Number>
294


> <IC50>
24480

$$$$
