145955823.0
 OpenBabel09302502333D

 25 25  0  0  0  0  0  0  0  0999 V2000
    1.1327    0.1231    0.1011 O   0  0  0  0  0  0  0  0  0  0  0  0
    2.3424    0.0080   -0.0749 C   0  0  0  0  0  0  0  0  0  0  0  0
    3.0885   -1.3053   -0.0651 C   0  0  0  0  0  0  0  0  0  0  0  0
    2.1210   -2.4673    0.1190 C   0  0  0  0  0  0  0  0  0  0  0  0
    2.8538   -3.7384    0.1526 N   0  0  0  0  0  0  0  0  0  0  0  0
    2.0999   -4.9145    0.3203 C   0  0  0  0  0  0  0  0  0  0  0  0
    0.7864   -5.0590   -0.1515 C   0  0  0  0  0  0  0  0  0  0  0  0
    0.0961   -6.2660   -0.0173 C   0  0  0  0  0  0  0  0  0  0  0  0
    0.7261   -7.3538    0.5667 C   0  0  0  0  0  0  0  0  0  0  0  0
    0.0646   -8.5106    0.6974 F   0  0  0  0  0  0  0  0  0  0  0  0
    2.0396   -7.2595    1.0023 C   0  0  0  0  0  0  0  0  0  0  0  0
    2.7270   -6.0492    0.8619 C   0  0  0  0  0  0  0  0  0  0  0  0
    3.1491    1.0957   -0.2909 N   0  0  0  0  0  0  0  0  0  0  0  0
    2.5274    2.3627   -0.2668 O   0  0  0  0  0  0  0  0  0  0  0  0
    3.8233   -1.2844    0.7481 H   0  0  0  0  0  0  0  0  0  0  0  0
    3.6309   -1.4111   -1.0119 H   0  0  0  0  0  0  0  0  0  0  0  0
    1.4112   -2.4521   -0.7156 H   0  0  0  0  0  0  0  0  0  0  0  0
    1.5581   -2.3437    1.0527 H   0  0  0  0  0  0  0  0  0  0  0  0
    3.6335   -3.7223    0.8079 H   0  0  0  0  0  0  0  0  0  0  0  0
    0.2703   -4.2395   -0.6415 H   0  0  0  0  0  0  0  0  0  0  0  0
   -0.9244   -6.3605   -0.3748 H   0  0  0  0  0  0  0  0  0  0  0  0
    2.5235   -8.1263    1.4401 H   0  0  0  0  0  0  0  0  0  0  0  0
    3.7623   -5.9998    1.1895 H   0  0  0  0  0  0  0  0  0  0  0  0
    4.1597    1.0754   -0.3735 H   0  0  0  0  0  0  0  0  0  0  0  0
    1.5887    2.1352   -0.0852 H   0  0  0  0  0  0  0  0  0  0  0  0
  1  2  2  0  0  0  0
  2  3  1  0  0  0  0
  2 13  1  0  0  0  0
  3  4  1  0  0  0  0
  3 15  1  0  0  0  0
  3 16  1  0  0  0  0
  4  5  1  0  0  0  0
  4 17  1  0  0  0  0
  4 18  1  0  0  0  0
  5  6  1  0  0  0  0
  5 19  1  0  0  0  0
  6  7  1  0  0  0  0
  6 12  2  0  0  0  0
  7  8  2  0  0  0  0
  7 20  1  0  0  0  0
  8  9  1  0  0  0  0
  8 21  1  0  0  0  0
  9 10  1  0  0  0  0
  9 11  2  0  0  0  0
 11 12  1  0  0  0  0
 11 22  1  0  0  0  0
 12 23  1  0  0  0  0
 13 14  1  0  0  0  0
 13 24  1  0  0  0  0
 14 25  1  0  0  0  0
M  END
>  <Line_Number>
295


> <IC50>
9040

$$$$
