22716931.0
 OpenBabel09302502333D

 22 22  0  0  0  0  0  0  0  0999 V2000
    2.6639   -0.1669   -1.0455 O   0  0  0  0  0  0  0  0  0  0  0  0
    2.3081   -0.4469    0.0986 C   0  0  0  0  0  0  0  0  0  0  0  0
    2.9367    0.1659    1.3545 C   0  0  0  0  0  0  0  0  0  0  0  0
    2.0703   -0.0406    2.5274 N   0  0  0  0  0  0  0  0  0  0  0  0
    2.4787    0.3996    3.7910 C   0  0  0  0  0  0  0  0  0  0  0  0
    3.7355    0.9458    4.0726 C   0  0  0  0  0  0  0  0  0  0  0  0
    4.0804    1.3225    5.3753 C   0  0  0  0  0  0  0  0  0  0  0  0
    3.1834    1.1271    6.4246 C   0  0  0  0  0  0  0  0  0  0  0  0
    1.9440    0.5547    6.1705 C   0  0  0  0  0  0  0  0  0  0  0  0
    1.5996    0.1938    4.8657 C   0  0  0  0  0  0  0  0  0  0  0  0
    1.3257   -1.3759    0.3537 N   0  0  0  0  0  0  0  0  0  0  0  0
    0.8246   -2.0921   -0.7547 O   0  0  0  0  0  0  0  0  0  0  0  0
    3.0874    1.2350    1.1735 H   0  0  0  0  0  0  0  0  0  0  0  0
    3.9013   -0.3334    1.4994 H   0  0  0  0  0  0  0  0  0  0  0  0
    1.1109    0.2656    2.3544 H   0  0  0  0  0  0  0  0  0  0  0  0
    4.4684    1.1117    3.2892 H   0  0  0  0  0  0  0  0  0  0  0  0
    5.0536    1.7656    5.5718 H   0  0  0  0  0  0  0  0  0  0  0  0
    3.4587    1.4107    7.4364 H   0  0  0  0  0  0  0  0  0  0  0  0
    1.2458    0.3787    6.9839 H   0  0  0  0  0  0  0  0  0  0  0  0
    0.6320   -0.2716    4.6937 H   0  0  0  0  0  0  0  0  0  0  0  0
    1.2646   -1.8125    1.2714 H   0  0  0  0  0  0  0  0  0  0  0  0
    1.3422   -1.7197   -1.5010 H   0  0  0  0  0  0  0  0  0  0  0  0
  1  2  2  0  0  0  0
  2  3  1  0  0  0  0
  2 11  1  0  0  0  0
  3  4  1  0  0  0  0
  3 13  1  0  0  0  0
  3 14  1  0  0  0  0
  4  5  1  0  0  0  0
  4 15  1  0  0  0  0
  5  6  1  0  0  0  0
  5 10  2  0  0  0  0
  6  7  2  0  0  0  0
  6 16  1  0  0  0  0
  7  8  1  0  0  0  0
  7 17  1  0  0  0  0
  8  9  2  0  0  0  0
  8 18  1  0  0  0  0
  9 10  1  0  0  0  0
  9 19  1  0  0  0  0
 10 20  1  0  0  0  0
 11 12  1  0  0  0  0
 11 21  1  0  0  0  0
 12 22  1  0  0  0  0
M  END
>  <Line_Number>
296


> <IC50>
4670

$$$$
