129927960.0
 OpenBabel09302502333D

 26 26  0  0  0  0  0  0  0  0999 V2000
    1.3753    0.3149   -0.5080 C   0  0  0  0  0  0  0  0  0  0  0  0
    2.5069   -0.0702    0.2628 O   0  0  0  0  0  0  0  0  0  0  0  0
    3.1687   -1.1978   -0.1348 C   0  0  0  0  0  0  0  0  0  0  0  0
    2.7865   -2.0521   -1.1659 C   0  0  0  0  0  0  0  0  0  0  0  0
    3.5732   -3.1670   -1.4892 C   0  0  0  0  0  0  0  0  0  0  0  0
    4.7636   -3.4363   -0.8052 C   0  0  0  0  0  0  0  0  0  0  0  0
    5.5540   -4.5810   -1.0299 N   0  0  0  0  0  0  0  0  0  0  0  0
    5.6066   -5.0641   -2.4274 C   0  0  0  0  0  0  0  0  0  0  0  0
    6.6055   -6.2116   -2.5738 C   0  0  0  0  0  0  0  0  0  0  0  0
    6.5062   -7.0894   -3.4334 O   0  0  0  0  0  0  0  0  0  0  0  0
    7.6544   -6.1665   -1.6951 N   0  0  0  0  0  0  0  0  0  0  0  0
    8.5742   -7.2348   -1.7265 O   0  0  0  0  0  0  0  0  0  0  0  0
    5.1013   -2.6085    0.2697 C   0  0  0  0  0  0  0  0  0  0  0  0
    4.3234   -1.4907    0.5896 C   0  0  0  0  0  0  0  0  0  0  0  0
    1.0161    1.2733   -0.1209 H   0  0  0  0  0  0  0  0  0  0  0  0
    0.5656   -0.4142   -0.4009 H   0  0  0  0  0  0  0  0  0  0  0  0
    1.6384    0.4613   -1.5612 H   0  0  0  0  0  0  0  0  0  0  0  0
    1.8777   -1.8891   -1.7355 H   0  0  0  0  0  0  0  0  0  0  0  0
    3.2173   -3.8179   -2.2814 H   0  0  0  0  0  0  0  0  0  0  0  0
    5.1974   -5.3204   -0.4186 H   0  0  0  0  0  0  0  0  0  0  0  0
    5.9288   -4.2602   -3.0999 H   0  0  0  0  0  0  0  0  0  0  0  0
    4.6304   -5.4471   -2.7414 H   0  0  0  0  0  0  0  0  0  0  0  0
    7.6797   -5.5157   -0.9137 H   0  0  0  0  0  0  0  0  0  0  0  0
    8.2379   -7.7797   -2.4717 H   0  0  0  0  0  0  0  0  0  0  0  0
    5.9924   -2.8167    0.8562 H   0  0  0  0  0  0  0  0  0  0  0  0
    4.6228   -0.8449    1.4114 H   0  0  0  0  0  0  0  0  0  0  0  0
  1  2  1  0  0  0  0
  1 15  1  0  0  0  0
  1 16  1  0  0  0  0
  1 17  1  0  0  0  0
  2  3  1  0  0  0  0
  3  4  1  0  0  0  0
  3 14  2  0  0  0  0
  4  5  2  0  0  0  0
  4 18  1  0  0  0  0
  5  6  1  0  0  0  0
  5 19  1  0  0  0  0
  6  7  1  0  0  0  0
  6 13  2  0  0  0  0
  7  8  1  0  0  0  0
  7 20  1  0  0  0  0
  8  9  1  0  0  0  0
  8 21  1  0  0  0  0
  8 22  1  0  0  0  0
  9 10  2  0  0  0  0
  9 11  1  0  0  0  0
 11 12  1  0  0  0  0
 11 23  1  0  0  0  0
 12 24  1  0  0  0  0
 13 14  1  0  0  0  0
 13 25  1  0  0  0  0
 14 26  1  0  0  0  0
M  END
>  <Line_Number>
297


> <IC50>
69800

$$$$
