145955675.0
 OpenBabel09302502333D

 25 25  0  0  0  0  0  0  0  0999 V2000
    1.0789   -0.4153   -0.3393 O   0  0  0  0  0  0  0  0  0  0  0  0
    2.2808   -0.1744   -0.2367 C   0  0  0  0  0  0  0  0  0  0  0  0
    2.9970    0.9406   -0.9658 C   0  0  0  0  0  0  0  0  0  0  0  0
    1.9845    1.7858   -1.7326 C   0  0  0  0  0  0  0  0  0  0  0  0
    2.6415    2.8923   -2.4295 N   0  0  0  0  0  0  0  0  0  0  0  0
    1.8985    3.7495   -3.2851 C   0  0  0  0  0  0  0  0  0  0  0  0
    0.5586    4.1694   -3.1083 C   0  0  0  0  0  0  0  0  0  0  0  0
   -0.4821    3.6795   -1.8143 Cl  0  0  0  0  0  0  0  0  0  0  0  0
   -0.0423    5.0860   -3.9939 C   0  0  0  0  0  0  0  0  0  0  0  0
    0.6670    5.6406   -5.0510 C   0  0  0  0  0  0  0  0  0  0  0  0
    1.9954    5.2879   -5.2316 C   0  0  0  0  0  0  0  0  0  0  0  0
    2.5977    4.3685   -4.3608 C   0  0  0  0  0  0  0  0  0  0  0  0
    4.2647    3.9796   -4.6704 Cl  0  0  0  0  0  0  0  0  0  0  0  0
    3.0973   -0.9365    0.5588 N   0  0  0  0  0  0  0  0  0  0  0  0
    2.4714   -1.9659    1.2962 O   0  0  0  0  0  0  0  0  0  0  0  0
    3.7413    0.5051   -1.6412 H   0  0  0  0  0  0  0  0  0  0  0  0
    3.5241    1.5612   -0.2305 H   0  0  0  0  0  0  0  0  0  0  0  0
    1.2963    2.1676   -0.9797 H   0  0  0  0  0  0  0  0  0  0  0  0
    1.4353    1.1634   -2.4488 H   0  0  0  0  0  0  0  0  0  0  0  0
    3.4859    2.5915   -2.9232 H   0  0  0  0  0  0  0  0  0  0  0  0
   -1.0786    5.3845   -3.8422 H   0  0  0  0  0  0  0  0  0  0  0  0
    0.1880    6.3569   -5.7147 H   0  0  0  0  0  0  0  0  0  0  0  0
    2.5620    5.7343   -6.0446 H   0  0  0  0  0  0  0  0  0  0  0  0
    4.0694   -0.7396    0.7674 H   0  0  0  0  0  0  0  0  0  0  0  0
    1.5311   -1.8813    1.0208 H   0  0  0  0  0  0  0  0  0  0  0  0
  1  2  2  0  0  0  0
  2  3  1  0  0  0  0
  2 14  1  0  0  0  0
  3  4  1  0  0  0  0
  3 16  1  0  0  0  0
  3 17  1  0  0  0  0
  4  5  1  0  0  0  0
  4 18  1  0  0  0  0
  4 19  1  0  0  0  0
  5  6  1  0  0  0  0
  5 20  1  0  0  0  0
  6  7  1  0  0  0  0
  6 12  2  0  0  0  0
  7  8  1  0  0  0  0
  7  9  2  0  0  0  0
  9 10  1  0  0  0  0
  9 21  1  0  0  0  0
 10 11  2  0  0  0  0
 10 22  1  0  0  0  0
 11 12  1  0  0  0  0
 11 23  1  0  0  0  0
 12 13  1  0  0  0  0
 14 15  1  0  0  0  0
 14 24  1  0  0  0  0
 15 25  1  0  0  0  0
M  END
>  <Line_Number>
298


> <IC50>
25000

$$$$
