145956736.0
 OpenBabel09302502333D

 26 26  0  0  0  0  0  0  0  0999 V2000
    1.4107    0.5194    0.5147 C   0  0  0  0  0  0  0  0  0  0  0  0
    2.5557   -0.0385   -0.1168 O   0  0  0  0  0  0  0  0  0  0  0  0
    3.1434    0.7052   -1.1040 C   0  0  0  0  0  0  0  0  0  0  0  0
    2.6950    1.9332   -1.5833 C   0  0  0  0  0  0  0  0  0  0  0  0
    3.3841    2.5649   -2.6192 C   0  0  0  0  0  0  0  0  0  0  0  0
    4.5262    1.9755   -3.1665 C   0  0  0  0  0  0  0  0  0  0  0  0
    5.0220    0.7660   -2.6688 C   0  0  0  0  0  0  0  0  0  0  0  0
    6.1276    0.1887   -3.3272 N   0  0  0  0  0  0  0  0  0  0  0  0
    6.9656   -0.7222   -2.5166 C   0  0  0  0  0  0  0  0  0  0  0  0
    8.1455   -1.2613   -3.3242 C   0  0  0  0  0  0  0  0  0  0  0  0
    8.7426   -2.2990   -3.0358 O   0  0  0  0  0  0  0  0  0  0  0  0
    8.5132   -0.4873   -4.3939 N   0  0  0  0  0  0  0  0  0  0  0  0
    9.6575   -0.8932   -5.1136 O   0  0  0  0  0  0  0  0  0  0  0  0
    4.2931    0.1267   -1.6583 C   0  0  0  0  0  0  0  0  0  0  0  0
    1.0927   -0.1728    1.3004 H   0  0  0  0  0  0  0  0  0  0  0  0
    0.5826    0.6234   -0.1940 H   0  0  0  0  0  0  0  0  0  0  0  0
    1.6478    1.4764    0.9911 H   0  0  0  0  0  0  0  0  0  0  0  0
    1.8108    2.4179   -1.1839 H   0  0  0  0  0  0  0  0  0  0  0  0
    3.0296    3.5170   -3.0055 H   0  0  0  0  0  0  0  0  0  0  0  0
    5.0442    2.4781   -3.9800 H   0  0  0  0  0  0  0  0  0  0  0  0
    5.7614   -0.3155   -4.1397 H   0  0  0  0  0  0  0  0  0  0  0  0
    6.3916   -1.5937   -2.1877 H   0  0  0  0  0  0  0  0  0  0  0  0
    7.3736   -0.1891   -1.6499 H   0  0  0  0  0  0  0  0  0  0  0  0
    8.1784    0.4671   -4.5039 H   0  0  0  0  0  0  0  0  0  0  0  0
    9.9027   -1.7292   -4.6633 H   0  0  0  0  0  0  0  0  0  0  0  0
    4.5887   -0.8468   -1.2798 H   0  0  0  0  0  0  0  0  0  0  0  0
  1  2  1  0  0  0  0
  1 15  1  0  0  0  0
  1 16  1  0  0  0  0
  1 17  1  0  0  0  0
  2  3  1  0  0  0  0
  3  4  1  0  0  0  0
  3 14  2  0  0  0  0
  4  5  2  0  0  0  0
  4 18  1  0  0  0  0
  5  6  1  0  0  0  0
  5 19  1  0  0  0  0
  6  7  2  0  0  0  0
  6 20  1  0  0  0  0
  7  8  1  0  0  0  0
  7 14  1  0  0  0  0
  8  9  1  0  0  0  0
  8 21  1  0  0  0  0
  9 10  1  0  0  0  0
  9 22  1  0  0  0  0
  9 23  1  0  0  0  0
 10 11  2  0  0  0  0
 10 12  1  0  0  0  0
 12 13  1  0  0  0  0
 12 24  1  0  0  0  0
 13 25  1  0  0  0  0
 14 26  1  0  0  0  0
M  END
>  <Line_Number>
299


> <IC50>
21810

$$$$
