49844399.0
 OpenBabel09302502333D

 31 32  0  0  0  0  0  0  0  0999 V2000
    2.2051    1.1477    0.4909 O   0  0  0  0  0  0  0  0  0  0  0  0
    1.0876    0.3737    0.3622 C   0  0  0  0  0  0  0  0  0  0  0  0
    0.4172   -0.0967    1.4859 C   0  0  0  0  0  0  0  0  0  0  0  0
   -0.7219   -0.8976    1.3326 C   0  0  0  0  0  0  0  0  0  0  0  0
   -1.2086   -1.2508    0.0583 C   0  0  0  0  0  0  0  0  0  0  0  0
   -2.4362   -2.1336   -0.0185 C   0  0  0  0  0  0  0  0  0  0  0  0
   -3.7461   -1.3303   -0.0070 C   0  0  0  0  0  0  0  0  0  0  0  0
   -5.0242   -2.1459    0.0734 C   0  0  0  0  0  0  0  0  0  0  0  0
   -6.1508   -1.5792    0.6956 C   0  0  0  0  0  0  0  0  0  0  0  0
   -7.3665   -2.2690    0.7583 C   0  0  0  0  0  0  0  0  0  0  0  0
   -7.4724   -3.5341    0.1905 C   0  0  0  0  0  0  0  0  0  0  0  0
   -8.9653   -4.3836    0.2607 Cl  0  0  0  0  0  0  0  0  0  0  0  0
   -6.3727   -4.1096   -0.4412 C   0  0  0  0  0  0  0  0  0  0  0  0
   -5.1572   -3.4169   -0.5057 C   0  0  0  0  0  0  0  0  0  0  0  0
   -0.5243   -0.7543   -1.0588 C   0  0  0  0  0  0  0  0  0  0  0  0
   -0.8924   -1.0095   -2.3548 O   0  0  0  0  0  0  0  0  0  0  0  0
    0.6144    0.0490   -0.9037 C   0  0  0  0  0  0  0  0  0  0  0  0
    1.2623    0.5058   -2.0221 O   0  0  0  0  0  0  0  0  0  0  0  0
    2.4064    1.2655    1.4314 H   0  0  0  0  0  0  0  0  0  0  0  0
    0.7645    0.1443    2.4859 H   0  0  0  0  0  0  0  0  0  0  0  0
   -1.2292   -1.2547    2.2277 H   0  0  0  0  0  0  0  0  0  0  0  0
   -2.4229   -2.8293    0.8315 H   0  0  0  0  0  0  0  0  0  0  0  0
   -2.3737   -2.7737   -0.9048 H   0  0  0  0  0  0  0  0  0  0  0  0
   -3.8040   -0.7004   -0.9038 H   0  0  0  0  0  0  0  0  0  0  0  0
   -3.7229   -0.6486    0.8543 H   0  0  0  0  0  0  0  0  0  0  0  0
   -6.0918   -0.5851    1.1369 H   0  0  0  0  0  0  0  0  0  0  0  0
   -8.2220   -1.8109    1.2480 H   0  0  0  0  0  0  0  0  0  0  0  0
   -6.4569   -5.0952   -0.8923 H   0  0  0  0  0  0  0  0  0  0  0  0
   -4.3275   -3.8931   -1.0209 H   0  0  0  0  0  0  0  0  0  0  0  0
   -1.6429   -1.6218   -2.3664 H   0  0  0  0  0  0  0  0  0  0  0  0
    0.7479    0.1454   -2.7688 H   0  0  0  0  0  0  0  0  0  0  0  0
  1  2  1  0  0  0  0
  1 19  1  0  0  0  0
  2  3  1  0  0  0  0
  2 17  2  0  0  0  0
  3  4  2  0  0  0  0
  3 20  1  0  0  0  0
  4  5  1  0  0  0  0
  4 21  1  0  0  0  0
  5  6  1  0  0  0  0
  5 15  2  0  0  0  0
  6  7  1  0  0  0  0
  6 22  1  0  0  0  0
  6 23  1  0  0  0  0
  7  8  1  0  0  0  0
  7 24  1  0  0  0  0
  7 25  1  0  0  0  0
  8  9  1  0  0  0  0
  8 14  2  0  0  0  0
  9 10  2  0  0  0  0
  9 26  1  0  0  0  0
 10 11  1  0  0  0  0
 10 27  1  0  0  0  0
 11 12  1  0  0  0  0
 11 13  2  0  0  0  0
 13 14  1  0  0  0  0
 13 28  1  0  0  0  0
 14 29  1  0  0  0  0
 15 16  1  0  0  0  0
 15 17  1  0  0  0  0
 16 30  1  0  0  0  0
 17 18  1  0  0  0  0
 18 31  1  0  0  0  0
M  END
>  <Line_Number>
29


> <IC50>
47000

$$$$
