49844400.0
 OpenBabel09302502333D

 31 32  0  0  0  0  0  0  0  0999 V2000
    2.2152    1.1476    0.4872 O   0  0  0  0  0  0  0  0  0  0  0  0
    1.0960    0.3763    0.3589 C   0  0  0  0  0  0  0  0  0  0  0  0
    0.4209   -0.0848    1.4834 C   0  0  0  0  0  0  0  0  0  0  0  0
   -0.7189   -0.8837    1.3308 C   0  0  0  0  0  0  0  0  0  0  0  0
   -1.2010   -1.2448    0.0567 C   0  0  0  0  0  0  0  0  0  0  0  0
   -2.4242   -2.1322   -0.0165 C   0  0  0  0  0  0  0  0  0  0  0  0
   -3.7395   -1.3390   -0.0029 C   0  0  0  0  0  0  0  0  0  0  0  0
   -5.0237   -2.1494    0.0190 C   0  0  0  0  0  0  0  0  0  0  0  0
   -5.0629   -3.5494    0.0517 C   0  0  0  0  0  0  0  0  0  0  0  0
   -6.2841   -4.2336    0.0872 C   0  0  0  0  0  0  0  0  0  0  0  0
   -7.4802   -3.5212    0.0897 C   0  0  0  0  0  0  0  0  0  0  0  0
   -9.1269   -4.4465    0.1411 Br  0  0  0  0  0  0  0  0  0  0  0  0
   -7.4668   -2.1294    0.0580 C   0  0  0  0  0  0  0  0  0  0  0  0
   -6.2449   -1.4509    0.0232 C   0  0  0  0  0  0  0  0  0  0  0  0
   -0.5137   -0.7577   -1.0614 C   0  0  0  0  0  0  0  0  0  0  0  0
   -0.8782   -1.0220   -2.3566 O   0  0  0  0  0  0  0  0  0  0  0  0
    0.6262    0.0443   -0.9072 C   0  0  0  0  0  0  0  0  0  0  0  0
    1.2785    0.4927   -2.0263 O   0  0  0  0  0  0  0  0  0  0  0  0
    2.4132    1.2697    1.4277 H   0  0  0  0  0  0  0  0  0  0  0  0
    0.7646    0.1614    2.4833 H   0  0  0  0  0  0  0  0  0  0  0  0
   -1.2301   -1.2352    2.2261 H   0  0  0  0  0  0  0  0  0  0  0  0
   -2.3962   -2.8192    0.8398 H   0  0  0  0  0  0  0  0  0  0  0  0
   -2.3712   -2.7781   -0.8994 H   0  0  0  0  0  0  0  0  0  0  0  0
   -3.7678   -0.6859   -0.8853 H   0  0  0  0  0  0  0  0  0  0  0  0
   -3.7503   -0.6844    0.8794 H   0  0  0  0  0  0  0  0  0  0  0  0
   -4.1533   -4.1444    0.0563 H   0  0  0  0  0  0  0  0  0  0  0  0
   -6.2897   -5.3196    0.1160 H   0  0  0  0  0  0  0  0  0  0  0  0
   -8.3948   -1.5660    0.0620 H   0  0  0  0  0  0  0  0  0  0  0  0
   -6.2518   -0.3618    0.0037 H   0  0  0  0  0  0  0  0  0  0  0  0
   -1.6350   -1.6272   -2.3653 H   0  0  0  0  0  0  0  0  0  0  0  0
    0.7650    0.1278   -2.7715 H   0  0  0  0  0  0  0  0  0  0  0  0
  1  2  1  0  0  0  0
  1 19  1  0  0  0  0
  2  3  1  0  0  0  0
  2 17  2  0  0  0  0
  3  4  2  0  0  0  0
  3 20  1  0  0  0  0
  4  5  1  0  0  0  0
  4 21  1  0  0  0  0
  5  6  1  0  0  0  0
  5 15  2  0  0  0  0
  6  7  1  0  0  0  0
  6 22  1  0  0  0  0
  6 23  1  0  0  0  0
  7  8  1  0  0  0  0
  7 24  1  0  0  0  0
  7 25  1  0  0  0  0
  8  9  1  0  0  0  0
  8 14  2  0  0  0  0
  9 10  2  0  0  0  0
  9 26  1  0  0  0  0
 10 11  1  0  0  0  0
 10 27  1  0  0  0  0
 11 12  1  0  0  0  0
 11 13  2  0  0  0  0
 13 14  1  0  0  0  0
 13 28  1  0  0  0  0
 14 29  1  0  0  0  0
 15 16  1  0  0  0  0
 15 17  1  0  0  0  0
 16 30  1  0  0  0  0
 17 18  1  0  0  0  0
 18 31  1  0  0  0  0
M  END
>  <Line_Number>
2


> <IC50>
48000

$$$$
