145953035.0
 OpenBabel09302502333D

 32 33  0  0  0  0  0  0  0  0999 V2000
    1.0389   -0.3644    0.4274 O   0  0  0  0  0  0  0  0  0  0  0  0
    2.1997   -0.7500    0.5290 C   0  0  0  0  0  0  0  0  0  0  0  0
    2.9790   -1.4429   -0.5611 C   0  0  0  0  0  0  0  0  0  0  0  0
    2.1692   -1.5887   -1.8472 C   0  0  0  0  0  0  0  0  0  0  0  0
    2.9876   -2.2415   -2.8858 N   0  0  0  0  0  0  0  0  0  0  0  0
    3.3264   -3.6556   -2.6958 C   0  0  0  0  0  0  0  0  0  0  0  0
    2.6619   -4.5291   -3.7411 C   0  0  0  0  0  0  0  0  0  0  0  0
    3.1407   -4.1140   -5.1211 C   0  0  0  0  0  0  0  0  0  0  0  0
    3.1016   -2.6185   -5.3009 C   0  0  0  0  0  0  0  0  0  0  0  0
    3.1843   -2.1119   -6.6130 C   0  0  0  0  0  0  0  0  0  0  0  0
    3.1632   -0.7419   -6.8453 C   0  0  0  0  0  0  0  0  0  0  0  0
    3.0664    0.1301   -5.7690 C   0  0  0  0  0  0  0  0  0  0  0  0
    2.9956   -0.3698   -4.4632 C   0  0  0  0  0  0  0  0  0  0  0  0
    3.0102   -1.7478   -4.1930 C   0  0  0  0  0  0  0  0  0  0  0  0
    2.9256   -0.5973    1.6874 N   0  0  0  0  0  0  0  0  0  0  0  0
    2.2440   -0.0402    2.7913 O   0  0  0  0  0  0  0  0  0  0  0  0
    3.2755   -2.4259   -0.1778 H   0  0  0  0  0  0  0  0  0  0  0  0
    3.8935   -0.8702   -0.7555 H   0  0  0  0  0  0  0  0  0  0  0  0
    1.8024   -0.6029   -2.1544 H   0  0  0  0  0  0  0  0  0  0  0  0
    1.2702   -2.1906   -1.6673 H   0  0  0  0  0  0  0  0  0  0  0  0
    3.0196   -4.0052   -1.7043 H   0  0  0  0  0  0  0  0  0  0  0  0
    4.4183   -3.7647   -2.7397 H   0  0  0  0  0  0  0  0  0  0  0  0
    1.5718   -4.4282   -3.6724 H   0  0  0  0  0  0  0  0  0  0  0  0
    2.9045   -5.5827   -3.5654 H   0  0  0  0  0  0  0  0  0  0  0  0
    2.5108   -4.6027   -5.8743 H   0  0  0  0  0  0  0  0  0  0  0  0
    4.1721   -4.4544   -5.2758 H   0  0  0  0  0  0  0  0  0  0  0  0
    3.2663   -2.7932   -7.4570 H   0  0  0  0  0  0  0  0  0  0  0  0
    3.2298   -0.3578   -7.8594 H   0  0  0  0  0  0  0  0  0  0  0  0
    3.0613    1.2032   -5.9386 H   0  0  0  0  0  0  0  0  0  0  0  0
    2.9678    0.3526   -3.6529 H   0  0  0  0  0  0  0  0  0  0  0  0
    3.8079   -1.0588    1.8781 H   0  0  0  0  0  0  0  0  0  0  0  0
    1.3517    0.1378    2.4216 H   0  0  0  0  0  0  0  0  0  0  0  0
  1  2  2  0  0  0  0
  2  3  1  0  0  0  0
  2 15  1  0  0  0  0
  3  4  1  0  0  0  0
  3 17  1  0  0  0  0
  3 18  1  0  0  0  0
  4  5  1  0  0  0  0
  4 19  1  0  0  0  0
  4 20  1  0  0  0  0
  5  6  1  0  0  0  0
  5 14  1  0  0  0  0
  6  7  1  0  0  0  0
  6 21  1  0  0  0  0
  6 22  1  0  0  0  0
  7  8  1  0  0  0  0
  7 23  1  0  0  0  0
  7 24  1  0  0  0  0
  8  9  1  0  0  0  0
  8 25  1  0  0  0  0
  8 26  1  0  0  0  0
  9 10  1  0  0  0  0
  9 14  2  0  0  0  0
 10 11  2  0  0  0  0
 10 27  1  0  0  0  0
 11 12  1  0  0  0  0
 11 28  1  0  0  0  0
 12 13  2  0  0  0  0
 12 29  1  0  0  0  0
 13 14  1  0  0  0  0
 13 30  1  0  0  0  0
 15 16  1  0  0  0  0
 15 31  1  0  0  0  0
 16 32  1  0  0  0  0
M  END
>  <Line_Number>
300


> <IC50>
21130

$$$$
