145959872.0
 OpenBabel09302502333D

 25 25  0  0  0  0  0  0  0  0999 V2000
    1.0946   -0.4475    0.4839 O   0  0  0  0  0  0  0  0  0  0  0  0
    2.2758   -0.2333    0.2245 C   0  0  0  0  0  0  0  0  0  0  0  0
    2.9984   -0.7752   -0.9878 C   0  0  0  0  0  0  0  0  0  0  0  0
    2.0152   -1.5023   -1.8952 C   0  0  0  0  0  0  0  0  0  0  0  0
    2.6987   -2.0546   -3.0702 N   0  0  0  0  0  0  0  0  0  0  0  0
    1.8929   -2.7884   -3.9754 C   0  0  0  0  0  0  0  0  0  0  0  0
    0.5681   -2.4168   -4.2532 C   0  0  0  0  0  0  0  0  0  0  0  0
   -0.2132   -3.1208   -5.1752 C   0  0  0  0  0  0  0  0  0  0  0  0
    0.3261   -4.1940   -5.8722 C   0  0  0  0  0  0  0  0  0  0  0  0
    1.6546   -4.5542   -5.6613 C   0  0  0  0  0  0  0  0  0  0  0  0
    2.4323   -3.8496   -4.7336 C   0  0  0  0  0  0  0  0  0  0  0  0
    4.2382   -4.4026   -4.4979 Br  0  0  0  0  0  0  0  0  0  0  0  0
    3.0668    0.5298    1.0458 N   0  0  0  0  0  0  0  0  0  0  0  0
    2.4694    0.9915    2.2398 O   0  0  0  0  0  0  0  0  0  0  0  0
    3.7891   -1.4548   -0.6508 H   0  0  0  0  0  0  0  0  0  0  0  0
    3.4686    0.0567   -1.5254 H   0  0  0  0  0  0  0  0  0  0  0  0
    1.2519   -0.7783   -2.2002 H   0  0  0  0  0  0  0  0  0  0  0  0
    1.5213   -2.3114   -1.3429 H   0  0  0  0  0  0  0  0  0  0  0  0
    3.5148   -2.6184   -2.8262 H   0  0  0  0  0  0  0  0  0  0  0  0
    0.1100   -1.5633   -3.7628 H   0  0  0  0  0  0  0  0  0  0  0  0
   -1.2431   -2.8162   -5.3474 H   0  0  0  0  0  0  0  0  0  0  0  0
   -0.2840   -4.7398   -6.5871 H   0  0  0  0  0  0  0  0  0  0  0  0
    2.0763   -5.3822   -6.2246 H   0  0  0  0  0  0  0  0  0  0  0  0
    4.0733    0.6196    0.9668 H   0  0  0  0  0  0  0  0  0  0  0  0
    1.5589    0.6271    2.1758 H   0  0  0  0  0  0  0  0  0  0  0  0
  1  2  2  0  0  0  0
  2  3  1  0  0  0  0
  2 13  1  0  0  0  0
  3  4  1  0  0  0  0
  3 15  1  0  0  0  0
  3 16  1  0  0  0  0
  4  5  1  0  0  0  0
  4 17  1  0  0  0  0
  4 18  1  0  0  0  0
  5  6  1  0  0  0  0
  5 19  1  0  0  0  0
  6  7  1  0  0  0  0
  6 11  2  0  0  0  0
  7  8  2  0  0  0  0
  7 20  1  0  0  0  0
  8  9  1  0  0  0  0
  8 21  1  0  0  0  0
  9 10  2  0  0  0  0
  9 22  1  0  0  0  0
 10 11  1  0  0  0  0
 10 23  1  0  0  0  0
 11 12  1  0  0  0  0
 13 14  1  0  0  0  0
 13 24  1  0  0  0  0
 14 25  1  0  0  0  0
M  END
>  <Line_Number>
301


> <IC50>
7315

$$$$
