145958045.0
 OpenBabel09302502333D

 26 26  0  0  0  0  0  0  0  0999 V2000
    0.9200   -0.2708   -0.4144 C   0  0  0  0  0  0  0  0  0  0  0  0
    2.2704    0.0475   -0.0999 O   0  0  0  0  0  0  0  0  0  0  0  0
    3.0225   -0.9430    0.4873 C   0  0  0  0  0  0  0  0  0  0  0  0
    2.7133   -2.3069    0.3491 C   0  0  0  0  0  0  0  0  0  0  0  0
    3.5502   -3.2884    0.8790 C   0  0  0  0  0  0  0  0  0  0  0  0
    4.7173   -2.9190    1.5318 C   0  0  0  0  0  0  0  0  0  0  0  0
    5.0320   -1.5667    1.6793 C   0  0  0  0  0  0  0  0  0  0  0  0
    4.1794   -0.5511    1.2055 C   0  0  0  0  0  0  0  0  0  0  0  0
    4.6103    0.7805    1.3949 N   0  0  0  0  0  0  0  0  0  0  0  0
    3.5788    1.8100    1.5650 C   0  0  0  0  0  0  0  0  0  0  0  0
    4.1005    2.9645    2.4333 C   0  0  0  0  0  0  0  0  0  0  0  0
    4.9729    2.8388    3.2937 O   0  0  0  0  0  0  0  0  0  0  0  0
    3.4648    4.1632    2.2037 N   0  0  0  0  0  0  0  0  0  0  0  0
    3.9236    5.2762    2.9430 O   0  0  0  0  0  0  0  0  0  0  0  0
    0.4469    0.6359   -0.8032 H   0  0  0  0  0  0  0  0  0  0  0  0
    0.3753   -0.5759    0.4851 H   0  0  0  0  0  0  0  0  0  0  0  0
    0.8509   -1.0303   -1.1990 H   0  0  0  0  0  0  0  0  0  0  0  0
    1.8376   -2.6438   -0.1950 H   0  0  0  0  0  0  0  0  0  0  0  0
    3.3015   -4.3396    0.7571 H   0  0  0  0  0  0  0  0  0  0  0  0
    5.3902   -3.6789    1.9200 H   0  0  0  0  0  0  0  0  0  0  0  0
    5.9589   -1.3055    2.1848 H   0  0  0  0  0  0  0  0  0  0  0  0
    5.3078    0.8483    2.1388 H   0  0  0  0  0  0  0  0  0  0  0  0
    2.6946    1.4205    2.0830 H   0  0  0  0  0  0  0  0  0  0  0  0
    3.2963    2.2118    0.5878 H   0  0  0  0  0  0  0  0  0  0  0  0
    2.9213    4.3640    1.3699 H   0  0  0  0  0  0  0  0  0  0  0  0
    4.6035    4.8749    3.5320 H   0  0  0  0  0  0  0  0  0  0  0  0
  1  2  1  0  0  0  0
  1 15  1  0  0  0  0
  1 16  1  0  0  0  0
  1 17  1  0  0  0  0
  2  3  1  0  0  0  0
  3  4  1  0  0  0  0
  3  8  2  0  0  0  0
  4  5  2  0  0  0  0
  4 18  1  0  0  0  0
  5  6  1  0  0  0  0
  5 19  1  0  0  0  0
  6  7  2  0  0  0  0
  6 20  1  0  0  0  0
  7  8  1  0  0  0  0
  7 21  1  0  0  0  0
  8  9  1  0  0  0  0
  9 10  1  0  0  0  0
  9 22  1  0  0  0  0
 10 11  1  0  0  0  0
 10 23  1  0  0  0  0
 10 24  1  0  0  0  0
 11 12  2  0  0  0  0
 11 13  1  0  0  0  0
 13 14  1  0  0  0  0
 13 25  1  0  0  0  0
 14 26  1  0  0  0  0
M  END
>  <Line_Number>
302


> <IC50>
152000

$$$$
