155559546.0
 OpenBabel09302502333D

 36 37  0  0  1  0  0  0  0  0999 V2000
    0.9204   -0.2089    0.1266 C   0  0  0  0  0  0  0  0  0  0  0  0
    2.4468   -0.0971    0.1211 C   0  0  0  0  0  0  0  0  0  0  0  0
    3.0242    0.7533   -1.0466 C   0  0  3  0  0  0  0  0  0  0  0  0
    2.5016    2.2016   -0.9892 C   0  0  0  0  0  0  0  0  0  0  0  0
    4.5838    0.7416   -0.9954 C   0  0  1  0  0  0  0  0  0  0  0  0
    5.1420   -0.6609   -1.0951 C   0  0  0  0  0  0  0  0  0  0  0  0
    5.8229   -1.1004   -0.1786 O   0  0  0  0  0  0  0  0  0  0  0  0
    4.8850   -1.4255   -2.1888 O   0  0  0  0  0  0  0  0  0  0  0  0
    5.3798   -2.7016   -2.3598 C   0  0  0  0  0  0  0  0  0  0  0  0
    5.1882    1.5689   -2.0589 N   0  0  0  0  0  0  0  0  0  0  0  0
    4.9128    1.2845   -3.8228 Se  0  0  0  0  0  0  0  0  0  0  0  0
    6.1186    2.6092   -4.1099 C   0  0  0  0  0  0  0  0  0  0  0  0
    6.5642    3.0474   -5.3596 C   0  0  0  0  0  0  0  0  0  0  0  0
    7.5209    4.0727   -5.4207 C   0  0  0  0  0  0  0  0  0  0  0  0
    8.0164    4.6470   -4.2370 C   0  0  0  0  0  0  0  0  0  0  0  0
    7.5547    4.2020   -2.9892 C   0  0  0  0  0  0  0  0  0  0  0  0
    6.6033    3.1737   -2.9469 C   0  0  0  0  0  0  0  0  0  0  0  0
    6.0679    2.5913   -1.8177 C   0  0  0  0  0  0  0  0  0  0  0  0
    6.3832    2.9332   -0.6911 O   0  0  0  0  0  0  0  0  0  0  0  0
    0.6065   -0.8801    0.9543 H   0  0  0  0  0  0  0  0  0  0  0  0
    0.5597   -0.6372   -0.8321 H   0  0  0  0  0  0  0  0  0  0  0  0
    0.4400    0.7747    0.3005 H   0  0  0  0  0  0  0  0  0  0  0  0
    2.8379   -1.1338    0.0425 H   0  0  0  0  0  0  0  0  0  0  0  0
    2.7781    0.3226    1.0962 H   0  0  0  0  0  0  0  0  0  0  0  0
    2.6903    0.3059   -2.0091 H   0  0  0  0  0  0  0  0  0  0  0  0
    2.8077    2.6913   -0.0406 H   0  0  0  0  0  0  0  0  0  0  0  0
    1.3969    2.2330   -1.0732 H   0  0  0  0  0  0  0  0  0  0  0  0
    2.8949    2.7924   -1.8420 H   0  0  0  0  0  0  0  0  0  0  0  0
    4.8863    1.1489   -0.0042 H   0  0  0  0  0  0  0  0  0  0  0  0
    5.0057   -3.1155   -3.3184 H   0  0  0  0  0  0  0  0  0  0  0  0
    5.0403   -3.3583   -1.5301 H   0  0  0  0  0  0  0  0  0  0  0  0
    6.4906   -2.6803   -2.3881 H   0  0  0  0  0  0  0  0  0  0  0  0
    6.1838    2.6006   -6.2688 H   0  0  0  0  0  0  0  0  0  0  0  0
    7.8842    4.4162   -6.3796 H   0  0  0  0  0  0  0  0  0  0  0  0
    8.7596    5.4323   -4.2900 H   0  0  0  0  0  0  0  0  0  0  0  0
    7.9445    4.6427   -2.0795 H   0  0  0  0  0  0  0  0  0  0  0  0
  1  2  1  0  0  0  0
  1 20  1  0  0  0  0
  1 21  1  0  0  0  0
  1 22  1  0  0  0  0
  2  3  1  0  0  0  0
  2 23  1  0  0  0  0
  2 24  1  0  0  0  0
  3  4  1  0  0  0  0
  3  5  1  0  0  0  0
  3 25  1  0  0  0  0
  4 26  1  0  0  0  0
  4 27  1  0  0  0  0
  4 28  1  0  0  0  0
  5  6  1  0  0  0  0
  5 10  1  0  0  0  0
  5 29  1  1  0  0  0
  6  7  2  0  0  0  0
  6  8  1  0  0  0  0
  8  9  1  0  0  0  0
  9 30  1  0  0  0  0
  9 31  1  0  0  0  0
  9 32  1  0  0  0  0
 10 11  1  0  0  0  0
 10 18  1  0  0  0  0
 11 12  1  0  0  0  0
 12 13  1  0  0  0  0
 12 17  2  0  0  0  0
 13 14  2  0  0  0  0
 13 33  1  0  0  0  0
 14 15  1  0  0  0  0
 14 34  1  0  0  0  0
 15 16  2  0  0  0  0
 15 35  1  0  0  0  0
 16 17  1  0  0  0  0
 16 36  1  0  0  0  0
 17 18  1  0  0  0  0
 18 19  2  0  0  0  0
M  END
>  <Line_Number>
303


> <IC50>
4070

$$$$
