155551988.0
 OpenBabel09302502333D

 62 63  0  0  0  0  0  0  0  0999 V2000
    8.9723   -3.4602   -8.2388 C   0  0  0  0  0  0  0  0  0  0  0  0
    9.5781   -3.5023   -7.0038 O   0  0  0  0  0  0  0  0  0  0  0  0
    9.1064   -4.2286   -5.9628 C   0  0  0  0  0  0  0  0  0  0  0  0
    8.0790   -4.8862   -6.0623 O   0  0  0  0  0  0  0  0  0  0  0  0
    9.8602   -4.2186   -4.6726 C   0  0  0  0  0  0  0  0  0  0  0  0
   11.2782   -4.7758   -4.8740 C   0  0  0  0  0  0  0  0  0  0  0  0
   12.0606   -4.7551   -3.5645 C   0  0  0  0  0  0  0  0  0  0  0  0
   11.3459   -5.5193   -2.5578 N   0  0  0  0  0  0  0  0  0  0  0  0
   10.8801   -4.9559   -1.4085 C   0  0  0  0  0  0  0  0  0  0  0  0
   11.1032   -3.7736   -1.1928 O   0  0  0  0  0  0  0  0  0  0  0  0
   10.1330   -5.7600   -0.3859 C   0  0  0  0  0  0  0  0  0  0  0  0
    9.4530   -6.9358   -0.7777 C   0  0  0  0  0  0  0  0  0  0  0  0
    8.7796   -7.7182    0.1587 C   0  0  0  0  0  0  0  0  0  0  0  0
    8.7825   -7.3562    1.5037 C   0  0  0  0  0  0  0  0  0  0  0  0
    9.4394   -6.1933    1.9167 C   0  0  0  0  0  0  0  0  0  0  0  0
   10.0998   -5.3770    0.9854 C   0  0  0  0  0  0  0  0  0  0  0  0
   11.0710   -3.8131    1.6200 Se  0  0  0  0  0  0  0  0  0  0  0  0
    9.3305   -2.6328    2.7604 Se  0  0  0  0  0  0  0  0  0  0  0  0
    8.0219   -2.3787    1.3436 C   0  0  0  0  0  0  0  0  0  0  0  0
    8.4606   -1.5679    0.2806 C   0  0  0  0  0  0  0  0  0  0  0  0
    7.6282   -1.2664   -0.7941 C   0  0  0  0  0  0  0  0  0  0  0  0
    6.3402   -1.7760   -0.8371 C   0  0  0  0  0  0  0  0  0  0  0  0
    5.8709   -2.5769    0.2027 C   0  0  0  0  0  0  0  0  0  0  0  0
    6.6732   -2.8942    1.3313 C   0  0  0  0  0  0  0  0  0  0  0  0
    5.9814   -3.7168    2.4143 C   0  0  0  0  0  0  0  0  0  0  0  0
    4.8580   -4.1414    2.1752 O   0  0  0  0  0  0  0  0  0  0  0  0
    6.5147   -3.9698    3.6462 N   0  0  0  0  0  0  0  0  0  0  0  0
    5.8340   -4.6894    4.7066 C   0  0  0  0  0  0  0  0  0  0  0  0
    5.7575   -3.7928    5.9526 C   0  0  0  0  0  0  0  0  0  0  0  0
    5.1222   -4.5255    7.1372 C   0  0  0  0  0  0  0  0  0  0  0  0
    5.1164   -3.6593    8.3698 C   0  0  0  0  0  0  0  0  0  0  0  0
    5.7076   -4.0386    9.3714 O   0  0  0  0  0  0  0  0  0  0  0  0
    4.4545   -2.4717    8.3572 O   0  0  0  0  0  0  0  0  0  0  0  0
    4.3422   -1.6087    9.4311 C   0  0  0  0  0  0  0  0  0  0  0  0
    9.5551   -2.7924   -8.9048 H   0  0  0  0  0  0  0  0  0  0  0  0
    7.9395   -3.0625   -8.1423 H   0  0  0  0  0  0  0  0  0  0  0  0
    8.9467   -4.4785   -8.6819 H   0  0  0  0  0  0  0  0  0  0  0  0
    9.3132   -4.8410   -3.9294 H   0  0  0  0  0  0  0  0  0  0  0  0
    9.9105   -3.1770   -4.2891 H   0  0  0  0  0  0  0  0  0  0  0  0
   11.8293   -4.1636   -5.6218 H   0  0  0  0  0  0  0  0  0  0  0  0
   11.2171   -5.8213   -5.2468 H   0  0  0  0  0  0  0  0  0  0  0  0
   12.2042   -3.6951   -3.2613 H   0  0  0  0  0  0  0  0  0  0  0  0
   13.0697   -5.1951   -3.7165 H   0  0  0  0  0  0  0  0  0  0  0  0
   11.2053   -6.5212   -2.7465 H   0  0  0  0  0  0  0  0  0  0  0  0
    9.4207   -7.2558   -1.8093 H   0  0  0  0  0  0  0  0  0  0  0  0
    8.2622   -8.6147   -0.1621 H   0  0  0  0  0  0  0  0  0  0  0  0
    8.2769   -7.9837    2.2266 H   0  0  0  0  0  0  0  0  0  0  0  0
    9.4451   -5.9364    2.9672 H   0  0  0  0  0  0  0  0  0  0  0  0
    9.4597   -1.1520    0.2909 H   0  0  0  0  0  0  0  0  0  0  0  0
    7.9797   -0.6300   -1.5967 H   0  0  0  0  0  0  0  0  0  0  0  0
    5.6912   -1.5412   -1.6725 H   0  0  0  0  0  0  0  0  0  0  0  0
    4.8500   -2.9282    0.1212 H   0  0  0  0  0  0  0  0  0  0  0  0
    7.4286   -3.6374    3.9119 H   0  0  0  0  0  0  0  0  0  0  0  0
    6.4301   -5.5965    4.9490 H   0  0  0  0  0  0  0  0  0  0  0  0
    4.8140   -5.0128    4.4077 H   0  0  0  0  0  0  0  0  0  0  0  0
    5.1689   -2.8794    5.7136 H   0  0  0  0  0  0  0  0  0  0  0  0
    6.7887   -3.4842    6.2363 H   0  0  0  0  0  0  0  0  0  0  0  0
    5.7024   -5.4518    7.3442 H   0  0  0  0  0  0  0  0  0  0  0  0
    4.0791   -4.8100    6.8855 H   0  0  0  0  0  0  0  0  0  0  0  0
    4.8053   -0.6368    9.1680 H   0  0  0  0  0  0  0  0  0  0  0  0
    4.8376   -1.9994   10.3479 H   0  0  0  0  0  0  0  0  0  0  0  0
    3.2687   -1.4453    9.6582 H   0  0  0  0  0  0  0  0  0  0  0  0
  1  2  1  0  0  0  0
  1 35  1  0  0  0  0
  1 36  1  0  0  0  0
  1 37  1  0  0  0  0
  2  3  1  0  0  0  0
  3  4  2  0  0  0  0
  3  5  1  0  0  0  0
  5  6  1  0  0  0  0
  5 38  1  0  0  0  0
  5 39  1  0  0  0  0
  6  7  1  0  0  0  0
  6 40  1  0  0  0  0
  6 41  1  0  0  0  0
  7  8  1  0  0  0  0
  7 42  1  0  0  0  0
  7 43  1  0  0  0  0
  8  9  1  0  0  0  0
  8 44  1  0  0  0  0
  9 10  2  0  0  0  0
  9 11  1  0  0  0  0
 11 12  1  0  0  0  0
 11 16  2  0  0  0  0
 12 13  2  0  0  0  0
 12 45  1  0  0  0  0
 13 14  1  0  0  0  0
 13 46  1  0  0  0  0
 14 15  2  0  0  0  0
 14 47  1  0  0  0  0
 15 16  1  0  0  0  0
 15 48  1  0  0  0  0
 16 17  1  0  0  0  0
 17 18  1  0  0  0  0
 18 19  1  0  0  0  0
 19 20  1  0  0  0  0
 19 24  2  0  0  0  0
 20 21  2  0  0  0  0
 20 49  1  0  0  0  0
 21 22  1  0  0  0  0
 21 50  1  0  0  0  0
 22 23  2  0  0  0  0
 22 51  1  0  0  0  0
 23 24  1  0  0  0  0
 23 52  1  0  0  0  0
 24 25  1  0  0  0  0
 25 26  2  0  0  0  0
 25 27  1  0  0  0  0
 27 28  1  0  0  0  0
 27 53  1  0  0  0  0
 28 29  1  0  0  0  0
 28 54  1  0  0  0  0
 28 55  1  0  0  0  0
 29 30  1  0  0  0  0
 29 56  1  0  0  0  0
 29 57  1  0  0  0  0
 30 31  1  0  0  0  0
 30 58  1  0  0  0  0
 30 59  1  0  0  0  0
 31 32  2  0  0  0  0
 31 33  1  0  0  0  0
 33 34  1  0  0  0  0
 34 60  1  0  0  0  0
 34 61  1  0  0  0  0
 34 62  1  0  0  0  0
M  END
>  <Line_Number>
304


> <IC50>
5992

$$$$
