155542098.0
 OpenBabel09302502333D

 27 28  0  0  1  0  0  0  0  0999 V2000
    3.3200    0.3873   -2.9521 O   0  0  0  0  0  0  0  0  0  0  0  0
    3.5828   -0.6720   -2.4048 C   0  0  0  0  0  0  0  0  0  0  0  0
    4.1118   -1.6731   -3.1397 O   0  0  0  0  0  0  0  0  0  0  0  0
    3.2594   -0.8525   -0.9410 C   0  0  0  0  0  0  0  0  0  0  0  0
    4.5145   -1.0131   -0.0456 C   0  0  1  0  0  0  0  0  0  0  0  0
    4.1584   -1.0886    1.4281 C   0  0  0  0  0  0  0  0  0  0  0  0
    2.9931   -1.0575    1.7953 O   0  0  0  0  0  0  0  0  0  0  0  0
    5.1329   -1.1968    2.3554 O   0  0  0  0  0  0  0  0  0  0  0  0
    5.3259   -2.1863   -0.4066 N   0  0  0  0  0  0  0  0  0  0  0  0
    7.0345   -1.9952   -0.9494 Se  0  0  0  0  0  0  0  0  0  0  0  0
    7.0991   -3.8044   -0.9982 C   0  0  0  0  0  0  0  0  0  0  0  0
    8.2204   -4.5621   -1.3415 C   0  0  0  0  0  0  0  0  0  0  0  0
    8.1233   -5.9606   -1.3307 C   0  0  0  0  0  0  0  0  0  0  0  0
    6.9121   -6.5815   -0.9814 C   0  0  0  0  0  0  0  0  0  0  0  0
    5.7933   -5.8075   -0.6362 C   0  0  0  0  0  0  0  0  0  0  0  0
    5.9091   -4.4117   -0.6476 C   0  0  0  0  0  0  0  0  0  0  0  0
    4.9308   -3.4949   -0.3192 C   0  0  0  0  0  0  0  0  0  0  0  0
    3.8107   -3.8206    0.0386 O   0  0  0  0  0  0  0  0  0  0  0  0
    4.2664   -2.5540   -2.7764 H   0  0  0  0  0  0  0  0  0  0  0  0
    2.5670   -1.7121   -0.8267 H   0  0  0  0  0  0  0  0  0  0  0  0
    2.7245    0.0608   -0.5939 H   0  0  0  0  0  0  0  0  0  0  0  0
    5.1318   -0.0973   -0.1803 H   0  0  0  0  0  0  0  0  0  0  0  0
    6.0674   -1.2425    2.1087 H   0  0  0  0  0  0  0  0  0  0  0  0
    9.1514   -4.0790   -1.6088 H   0  0  0  0  0  0  0  0  0  0  0  0
    8.9844   -6.5620   -1.5918 H   0  0  0  0  0  0  0  0  0  0  0  0
    6.8446   -7.6627   -0.9749 H   0  0  0  0  0  0  0  0  0  0  0  0
    4.8635   -6.2901   -0.3615 H   0  0  0  0  0  0  0  0  0  0  0  0
  1  2  2  0  0  0  0
  2  3  1  0  0  0  0
  2  4  1  0  0  0  0
  3 19  1  0  0  0  0
  4  5  1  0  0  0  0
  4 20  1  0  0  0  0
  4 21  1  0  0  0  0
  5  6  1  0  0  0  0
  5  9  1  0  0  0  0
  5 22  1  6  0  0  0
  6  7  2  0  0  0  0
  6  8  1  0  0  0  0
  8 23  1  0  0  0  0
  9 10  1  0  0  0  0
  9 17  1  0  0  0  0
 10 11  1  0  0  0  0
 11 12  1  0  0  0  0
 11 16  2  0  0  0  0
 12 13  2  0  0  0  0
 12 24  1  0  0  0  0
 13 14  1  0  0  0  0
 13 25  1  0  0  0  0
 14 15  2  0  0  0  0
 14 26  1  0  0  0  0
 15 16  1  0  0  0  0
 15 27  1  0  0  0  0
 16 17  1  0  0  0  0
 17 18  2  0  0  0  0
M  END
>  <Line_Number>
305


> <IC50>
50800

$$$$
