129387.0
 OpenBabel09302502333D

 52 55  0  0  0  0  0  0  0  0999 V2000
    5.4467    0.3984   -4.0963 O   0  0  0  0  0  0  0  0  0  0  0  0
    5.2845    1.5074   -3.6191 C   0  0  0  0  0  0  0  0  0  0  0  0
    5.9606    2.5830   -4.1346 N   0  0  0  0  0  0  0  0  0  0  0  0
    6.8236    2.5765   -5.2820 C   0  0  0  0  0  0  0  0  0  0  0  0
    6.8184    1.5573   -6.2611 C   0  0  0  0  0  0  0  0  0  0  0  0
    7.6741    1.6208   -7.3627 C   0  0  0  0  0  0  0  0  0  0  0  0
    8.5485    2.6963   -7.5124 C   0  0  0  0  0  0  0  0  0  0  0  0
    8.5660    3.7152   -6.5601 C   0  0  0  0  0  0  0  0  0  0  0  0
    7.7082    3.6579   -5.4576 C   0  0  0  0  0  0  0  0  0  0  0  0
    4.3934    1.6573   -2.4189 C   0  0  0  0  0  0  0  0  0  0  0  0
    3.8015    2.9105   -2.1483 C   0  0  0  0  0  0  0  0  0  0  0  0
    2.9821    3.0944   -1.0366 C   0  0  0  0  0  0  0  0  0  0  0  0
    2.7494    2.0405   -0.1582 C   0  0  0  0  0  0  0  0  0  0  0  0
    3.3174    0.7881   -0.4012 C   0  0  0  0  0  0  0  0  0  0  0  0
    4.1208    0.5729   -1.5335 C   0  0  0  0  0  0  0  0  0  0  0  0
    4.9115   -1.1845   -1.7953 Se  0  0  0  0  0  0  0  0  0  0  0  0
    2.9438   -2.5053   -1.4680 Se  0  0  0  0  0  0  0  0  0  0  0  0
    1.9481   -2.0099   -3.0676 C   0  0  0  0  0  0  0  0  0  0  0  0
    2.5562   -2.2077   -4.3192 C   0  0  0  0  0  0  0  0  0  0  0  0
    1.8792   -1.8947   -5.5004 C   0  0  0  0  0  0  0  0  0  0  0  0
    0.5867   -1.3853   -5.4485 C   0  0  0  0  0  0  0  0  0  0  0  0
   -0.0330   -1.1739   -4.2198 C   0  0  0  0  0  0  0  0  0  0  0  0
    0.6251   -1.4738   -3.0027 C   0  0  0  0  0  0  0  0  0  0  0  0
   -0.0839   -1.2452   -1.6935 C   0  0  0  0  0  0  0  0  0  0  0  0
    0.3034   -1.8337   -0.7019 O   0  0  0  0  0  0  0  0  0  0  0  0
   -1.1294   -0.3608   -1.5965 N   0  0  0  0  0  0  0  0  0  0  0  0
   -1.8843   -0.0185   -0.4242 C   0  0  0  0  0  0  0  0  0  0  0  0
   -1.7811   -0.6807    0.8243 C   0  0  0  0  0  0  0  0  0  0  0  0
   -2.5592   -0.2681    1.9124 C   0  0  0  0  0  0  0  0  0  0  0  0
   -3.4451    0.8001    1.7819 C   0  0  0  0  0  0  0  0  0  0  0  0
   -3.5631    1.4594    0.5602 C   0  0  0  0  0  0  0  0  0  0  0  0
   -2.7942    1.0533   -0.5307 C   0  0  0  0  0  0  0  0  0  0  0  0
    5.9081    3.4743   -3.6218 H   0  0  0  0  0  0  0  0  0  0  0  0
    6.1562    0.7069   -6.2214 H   0  0  0  0  0  0  0  0  0  0  0  0
    7.6545    0.8346   -8.1080 H   0  0  0  0  0  0  0  0  0  0  0  0
    9.2075    2.7427   -8.3693 H   0  0  0  0  0  0  0  0  0  0  0  0
    9.2438    4.5508   -6.6759 H   0  0  0  0  0  0  0  0  0  0  0  0
    7.7415    4.4611   -4.7300 H   0  0  0  0  0  0  0  0  0  0  0  0
    3.9468    3.7578   -2.8039 H   0  0  0  0  0  0  0  0  0  0  0  0
    2.5317    4.0629   -0.8560 H   0  0  0  0  0  0  0  0  0  0  0  0
    2.1259    2.1975    0.7126 H   0  0  0  0  0  0  0  0  0  0  0  0
    3.1328   -0.0147    0.3000 H   0  0  0  0  0  0  0  0  0  0  0  0
    3.5578   -2.6110   -4.3822 H   0  0  0  0  0  0  0  0  0  0  0  0
    2.3505   -2.0542   -6.4620 H   0  0  0  0  0  0  0  0  0  0  0  0
    0.0538   -1.1574   -6.3641 H   0  0  0  0  0  0  0  0  0  0  0  0
   -1.0454   -0.8003   -4.2504 H   0  0  0  0  0  0  0  0  0  0  0  0
   -1.3730    0.1779   -2.4385 H   0  0  0  0  0  0  0  0  0  0  0  0
   -1.1276   -1.5151    1.0030 H   0  0  0  0  0  0  0  0  0  0  0  0
   -2.4726   -0.7791    2.8633 H   0  0  0  0  0  0  0  0  0  0  0  0
   -4.0426    1.1177    2.6266 H   0  0  0  0  0  0  0  0  0  0  0  0
   -4.2502    2.2894    0.4547 H   0  0  0  0  0  0  0  0  0  0  0  0
   -2.9034    1.5850   -1.4680 H   0  0  0  0  0  0  0  0  0  0  0  0
  1  2  2  0  0  0  0
  2  3  1  0  0  0  0
  2 10  1  0  0  0  0
  3  4  1  0  0  0  0
  3 33  1  0  0  0  0
  4  5  1  0  0  0  0
  4  9  2  0  0  0  0
  5  6  2  0  0  0  0
  5 34  1  0  0  0  0
  6  7  1  0  0  0  0
  6 35  1  0  0  0  0
  7  8  2  0  0  0  0
  7 36  1  0  0  0  0
  8  9  1  0  0  0  0
  8 37  1  0  0  0  0
  9 38  1  0  0  0  0
 10 11  1  0  0  0  0
 10 15  2  0  0  0  0
 11 12  2  0  0  0  0
 11 39  1  0  0  0  0
 12 13  1  0  0  0  0
 12 40  1  0  0  0  0
 13 14  2  0  0  0  0
 13 41  1  0  0  0  0
 14 15  1  0  0  0  0
 14 42  1  0  0  0  0
 15 16  1  0  0  0  0
 16 17  1  0  0  0  0
 17 18  1  0  0  0  0
 18 19  1  0  0  0  0
 18 23  2  0  0  0  0
 19 20  2  0  0  0  0
 19 43  1  0  0  0  0
 20 21  1  0  0  0  0
 20 44  1  0  0  0  0
 21 22  2  0  0  0  0
 21 45  1  0  0  0  0
 22 23  1  0  0  0  0
 22 46  1  0  0  0  0
 23 24  1  0  0  0  0
 24 25  2  0  0  0  0
 24 26  1  0  0  0  0
 26 27  1  0  0  0  0
 26 47  1  0  0  0  0
 27 28  1  0  0  0  0
 27 32  2  0  0  0  0
 28 29  2  0  0  0  0
 28 48  1  0  0  0  0
 29 30  1  0  0  0  0
 29 49  1  0  0  0  0
 30 31  2  0  0  0  0
 30 50  1  0  0  0  0
 31 32  1  0  0  0  0
 31 51  1  0  0  0  0
 32 52  1  0  0  0  0
M  END
>  <Line_Number>
306


> <IC50>
6700

$$$$
