101536682.0
 OpenBabel09302502333D

 50 51  0  0  0  0  0  0  0  0999 V2000
    3.6765   10.0944    1.8724 C   0  0  0  0  0  0  0  0  0  0  0  0
    4.7644    9.6819    2.6153 O   0  0  0  0  0  0  0  0  0  0  0  0
    5.5602    8.6406    2.2668 C   0  0  0  0  0  0  0  0  0  0  0  0
    5.3038    7.9513    1.2899 O   0  0  0  0  0  0  0  0  0  0  0  0
    6.7991    8.3538    3.0633 C   0  0  0  0  0  0  0  0  0  0  0  0
    6.7650    6.9907    3.5644 N   0  0  0  0  0  0  0  0  0  0  0  0
    7.6474    6.0318    3.1500 C   0  0  0  0  0  0  0  0  0  0  0  0
    8.5008    6.3192    2.3248 O   0  0  0  0  0  0  0  0  0  0  0  0
    7.5649    4.6240    3.6498 C   0  0  0  0  0  0  0  0  0  0  0  0
    6.9468    4.3564    4.8955 C   0  0  0  0  0  0  0  0  0  0  0  0
    6.8649    3.0580    5.3950 C   0  0  0  0  0  0  0  0  0  0  0  0
    7.3813    1.9952    4.6614 C   0  0  0  0  0  0  0  0  0  0  0  0
    7.9963    2.2297    3.4285 C   0  0  0  0  0  0  0  0  0  0  0  0
    8.1070    3.5298    2.9090 C   0  0  0  0  0  0  0  0  0  0  0  0
    9.0433    3.7174    1.1953 Se  0  0  0  0  0  0  0  0  0  0  0  0
    7.1185    3.9288   -0.2356 Se  0  0  0  0  0  0  0  0  0  0  0  0
    8.1151    3.9927   -1.9264 C   0  0  0  0  0  0  0  0  0  0  0  0
    8.9643    2.8854   -2.1297 C   0  0  0  0  0  0  0  0  0  0  0  0
    9.7428    2.7577   -3.2782 C   0  0  0  0  0  0  0  0  0  0  0  0
    9.6891    3.7287   -4.2620 C   0  0  0  0  0  0  0  0  0  0  0  0
    8.8593    4.8306   -4.1042 C   0  0  0  0  0  0  0  0  0  0  0  0
    8.0460    5.0133   -2.9495 C   0  0  0  0  0  0  0  0  0  0  0  0
    7.2053    6.2821   -2.9674 C   0  0  0  0  0  0  0  0  0  0  0  0
    7.3311    7.0206   -3.9373 O   0  0  0  0  0  0  0  0  0  0  0  0
    6.3210    6.6551   -1.9947 N   0  0  0  0  0  0  0  0  0  0  0  0
    5.5644    7.8996   -2.0675 C   0  0  0  0  0  0  0  0  0  0  0  0
    4.0943    7.6193   -2.1358 C   0  0  0  0  0  0  0  0  0  0  0  0
    3.6516    6.9556   -3.0634 O   0  0  0  0  0  0  0  0  0  0  0  0
    3.2636    8.1462   -1.2007 O   0  0  0  0  0  0  0  0  0  0  0  0
    1.8930    7.9963   -1.2309 C   0  0  0  0  0  0  0  0  0  0  0  0
    3.2143   10.9734    2.3652 H   0  0  0  0  0  0  0  0  0  0  0  0
    2.9253    9.2801    1.8020 H   0  0  0  0  0  0  0  0  0  0  0  0
    4.0040   10.3911    0.8520 H   0  0  0  0  0  0  0  0  0  0  0  0
    6.8818    9.0580    3.9170 H   0  0  0  0  0  0  0  0  0  0  0  0
    7.6688    8.5252    2.3961 H   0  0  0  0  0  0  0  0  0  0  0  0
    6.0015    6.7543    4.2131 H   0  0  0  0  0  0  0  0  0  0  0  0
    6.5472    5.1465    5.5155 H   0  0  0  0  0  0  0  0  0  0  0  0
    6.4024    2.8766    6.3593 H   0  0  0  0  0  0  0  0  0  0  0  0
    7.3109    0.9891    5.0551 H   0  0  0  0  0  0  0  0  0  0  0  0
    8.3981    1.3883    2.8789 H   0  0  0  0  0  0  0  0  0  0  0  0
    9.0267    2.1038   -1.3857 H   0  0  0  0  0  0  0  0  0  0  0  0
   10.3895    1.8996   -3.4102 H   0  0  0  0  0  0  0  0  0  0  0  0
   10.2915    3.6306   -5.1580 H   0  0  0  0  0  0  0  0  0  0  0  0
    8.8637    5.5483   -4.9164 H   0  0  0  0  0  0  0  0  0  0  0  0
    6.1521    6.0778   -1.1737 H   0  0  0  0  0  0  0  0  0  0  0  0
    5.8256    8.5005   -2.9637 H   0  0  0  0  0  0  0  0  0  0  0  0
    5.7996    8.5236   -1.1812 H   0  0  0  0  0  0  0  0  0  0  0  0
    1.4450    8.5431   -0.3763 H   0  0  0  0  0  0  0  0  0  0  0  0
    1.6243    6.9214   -1.1541 H   0  0  0  0  0  0  0  0  0  0  0  0
    1.4836    8.4171   -2.1752 H   0  0  0  0  0  0  0  0  0  0  0  0
  1  2  1  0  0  0  0
  1 31  1  0  0  0  0
  1 32  1  0  0  0  0
  1 33  1  0  0  0  0
  2  3  1  0  0  0  0
  3  4  2  0  0  0  0
  3  5  1  0  0  0  0
  5  6  1  0  0  0  0
  5 34  1  0  0  0  0
  5 35  1  0  0  0  0
  6  7  1  0  0  0  0
  6 36  1  0  0  0  0
  7  8  2  0  0  0  0
  7  9  1  0  0  0  0
  9 10  1  0  0  0  0
  9 14  2  0  0  0  0
 10 11  2  0  0  0  0
 10 37  1  0  0  0  0
 11 12  1  0  0  0  0
 11 38  1  0  0  0  0
 12 13  2  0  0  0  0
 12 39  1  0  0  0  0
 13 14  1  0  0  0  0
 13 40  1  0  0  0  0
 14 15  1  0  0  0  0
 15 16  1  0  0  0  0
 16 17  1  0  0  0  0
 17 18  1  0  0  0  0
 17 22  2  0  0  0  0
 18 19  2  0  0  0  0
 18 41  1  0  0  0  0
 19 20  1  0  0  0  0
 19 42  1  0  0  0  0
 20 21  2  0  0  0  0
 20 43  1  0  0  0  0
 21 22  1  0  0  0  0
 21 44  1  0  0  0  0
 22 23  1  0  0  0  0
 23 24  2  0  0  0  0
 23 25  1  0  0  0  0
 25 26  1  0  0  0  0
 25 45  1  0  0  0  0
 26 27  1  0  0  0  0
 26 46  1  0  0  0  0
 26 47  1  0  0  0  0
 27 28  2  0  0  0  0
 27 29  1  0  0  0  0
 29 30  1  0  0  0  0
 30 48  1  0  0  0  0
 30 49  1  0  0  0  0
 30 50  1  0  0  0  0
M  END
>  <Line_Number>
307


> <IC50>
42207

$$$$
