13713087.0
 OpenBabel09302502333D

 27 28  0  0  0  0  0  0  0  0999 V2000
    3.6754    2.3422    4.4551 O   0  0  0  0  0  0  0  0  0  0  0  0
    4.3428    1.6218    3.7301 C   0  0  0  0  0  0  0  0  0  0  0  0
    4.4311    0.3037    4.0108 O   0  0  0  0  0  0  0  0  0  0  0  0
    5.0624    2.2141    2.5469 C   0  0  0  0  0  0  0  0  0  0  0  0
    4.5756    1.5841    1.2345 C   0  0  0  0  0  0  0  0  0  0  0  0
    5.2395    2.2204    0.0035 C   0  0  0  0  0  0  0  0  0  0  0  0
    6.7032    2.1143    0.0334 N   0  0  0  0  0  0  0  0  0  0  0  0
    7.7437    3.5843    0.0550 Se  0  0  0  0  0  0  0  0  0  0  0  0
    9.1508    2.4424    0.0473 C   0  0  0  0  0  0  0  0  0  0  0  0
   10.4947    2.8192    0.0512 C   0  0  0  0  0  0  0  0  0  0  0  0
   11.4792    1.8210    0.0424 C   0  0  0  0  0  0  0  0  0  0  0  0
   11.1105    0.4643    0.0296 C   0  0  0  0  0  0  0  0  0  0  0  0
    9.7549    0.0999    0.0235 C   0  0  0  0  0  0  0  0  0  0  0  0
    8.7842    1.1103    0.0321 C   0  0  0  0  0  0  0  0  0  0  0  0
    7.4148    0.9460    0.0206 C   0  0  0  0  0  0  0  0  0  0  0  0
    6.8792   -0.1496   -0.0066 O   0  0  0  0  0  0  0  0  0  0  0  0
    4.9578   -0.3005    3.4699 H   0  0  0  0  0  0  0  0  0  0  0  0
    6.1531    2.0416    2.6704 H   0  0  0  0  0  0  0  0  0  0  0  0
    4.8802    3.3110    2.5153 H   0  0  0  0  0  0  0  0  0  0  0  0
    3.4768    1.7329    1.1450 H   0  0  0  0  0  0  0  0  0  0  0  0
    4.7711    0.4923    1.2439 H   0  0  0  0  0  0  0  0  0  0  0  0
    4.9482    3.2929   -0.0336 H   0  0  0  0  0  0  0  0  0  0  0  0
    4.8542    1.7334   -0.9176 H   0  0  0  0  0  0  0  0  0  0  0  0
   10.7741    3.8649    0.0597 H   0  0  0  0  0  0  0  0  0  0  0  0
   12.5258    2.0971    0.0451 H   0  0  0  0  0  0  0  0  0  0  0  0
   11.8762   -0.3005    0.0237 H   0  0  0  0  0  0  0  0  0  0  0  0
    9.4744   -0.9460    0.0124 H   0  0  0  0  0  0  0  0  0  0  0  0
  1  2  2  0  0  0  0
  2  3  1  0  0  0  0
  2  4  1  0  0  0  0
  3 17  1  0  0  0  0
  4  5  1  0  0  0  0
  4 18  1  0  0  0  0
  4 19  1  0  0  0  0
  5  6  1  0  0  0  0
  5 20  1  0  0  0  0
  5 21  1  0  0  0  0
  6  7  1  0  0  0  0
  6 22  1  0  0  0  0
  6 23  1  0  0  0  0
  7  8  1  0  0  0  0
  7 15  1  0  0  0  0
  8  9  1  0  0  0  0
  9 10  1  0  0  0  0
  9 14  2  0  0  0  0
 10 11  2  0  0  0  0
 10 24  1  0  0  0  0
 11 12  1  0  0  0  0
 11 25  1  0  0  0  0
 12 13  2  0  0  0  0
 12 26  1  0  0  0  0
 13 14  1  0  0  0  0
 13 27  1  0  0  0  0
 14 15  1  0  0  0  0
 15 16  2  0  0  0  0
M  END
>  <Line_Number>
308


> <IC50>
37000

$$$$
