25112139.0
 OpenBabel09302502333D

 24 25  0  0  0  0  0  0  0  0999 V2000
    7.8138   -0.1802   -0.6077 C   0  0  0  0  0  0  0  0  0  0  0  0
    6.7168    0.4142   -0.0199 O   0  0  0  0  0  0  0  0  0  0  0  0
    5.6968   -0.2840    0.5390 C   0  0  0  0  0  0  0  0  0  0  0  0
    5.7076   -1.5078    0.5513 O   0  0  0  0  0  0  0  0  0  0  0  0
    4.5284    0.4516    1.1241 C   0  0  0  0  0  0  0  0  0  0  0  0
    4.9396    1.3160    2.2319 N   0  0  0  0  0  0  0  0  0  0  0  0
    4.6809    3.0983    2.1961 Se  0  0  0  0  0  0  0  0  0  0  0  0
    5.3390    3.1048    3.8867 C   0  0  0  0  0  0  0  0  0  0  0  0
    5.4656    4.2314    4.7012 C   0  0  0  0  0  0  0  0  0  0  0  0
    5.9832    4.0780    5.9959 C   0  0  0  0  0  0  0  0  0  0  0  0
    6.3719    2.8084    6.4568 C   0  0  0  0  0  0  0  0  0  0  0  0
    6.2407    1.6844    5.6268 C   0  0  0  0  0  0  0  0  0  0  0  0
    5.7167    1.8543    4.3397 C   0  0  0  0  0  0  0  0  0  0  0  0
    5.4880    0.8696    3.4018 C   0  0  0  0  0  0  0  0  0  0  0  0
    5.7286   -0.3091    3.6054 O   0  0  0  0  0  0  0  0  0  0  0  0
    8.4915    0.6070   -0.9962 H   0  0  0  0  0  0  0  0  0  0  0  0
    7.4920   -0.8245   -1.4545 H   0  0  0  0  0  0  0  0  0  0  0  0
    8.3628   -0.7919    0.1397 H   0  0  0  0  0  0  0  0  0  0  0  0
    3.7667   -0.2684    1.4951 H   0  0  0  0  0  0  0  0  0  0  0  0
    4.0616    1.0605    0.3205 H   0  0  0  0  0  0  0  0  0  0  0  0
    5.1637    5.2075    4.3438 H   0  0  0  0  0  0  0  0  0  0  0  0
    6.0816    4.9406    6.6424 H   0  0  0  0  0  0  0  0  0  0  0  0
    6.7689    2.6968    7.4577 H   0  0  0  0  0  0  0  0  0  0  0  0
    6.5350    0.7064    5.9862 H   0  0  0  0  0  0  0  0  0  0  0  0
  1  2  1  0  0  0  0
  1 16  1  0  0  0  0
  1 17  1  0  0  0  0
  1 18  1  0  0  0  0
  2  3  1  0  0  0  0
  3  4  2  0  0  0  0
  3  5  1  0  0  0  0
  5  6  1  0  0  0  0
  5 19  1  0  0  0  0
  5 20  1  0  0  0  0
  6  7  1  0  0  0  0
  6 14  1  0  0  0  0
  7  8  1  0  0  0  0
  8  9  1  0  0  0  0
  8 13  2  0  0  0  0
  9 10  2  0  0  0  0
  9 21  1  0  0  0  0
 10 11  1  0  0  0  0
 10 22  1  0  0  0  0
 11 12  2  0  0  0  0
 11 23  1  0  0  0  0
 12 13  1  0  0  0  0
 12 24  1  0  0  0  0
 13 14  1  0  0  0  0
 14 15  2  0  0  0  0
M  END
>  <Line_Number>
309


> <IC50>
2795

$$$$
