382975.0
 OpenBabel09302502333D

 32 34  0  0  1  0  0  0  0  0999 V2000
    1.7850    0.1160    0.1114 O   0  0  0  0  0  0  0  0  0  0  0  0
    0.5114   -0.3404    0.2603 C   0  0  0  0  0  0  0  0  0  0  0  0
    0.2043   -1.6956    0.1964 C   0  0  0  0  0  0  0  0  0  0  0  0
   -1.1290   -2.1220    0.3019 C   0  0  0  0  0  0  0  0  0  0  0  0
   -2.1481   -1.1838    0.4872 C   0  0  0  0  0  0  0  0  0  0  0  0
   -3.6224   -1.4972    0.4373 C   0  0  3  0  0  0  0  0  0  0  0  0
   -4.1836   -2.9011    0.7943 C   0  0  0  0  0  0  0  0  0  0  0  0
   -5.4217   -3.2835    0.1237 O   0  0  0  0  0  0  0  0  0  0  0  0
   -6.2103   -2.2196   -0.2326 C   0  0  0  0  0  0  0  0  0  0  0  0
   -7.5840   -2.2825   -0.0531 C   0  0  0  0  0  0  0  0  0  0  0  0
   -8.3245   -1.1129   -0.2253 C   0  0  0  0  0  0  0  0  0  0  0  0
   -9.6746   -1.0885   -0.0158 O   0  0  0  0  0  0  0  0  0  0  0  0
   -7.7188    0.0879   -0.5824 C   0  0  0  0  0  0  0  0  0  0  0  0
   -6.3597    0.1122   -0.8706 C   0  0  0  0  0  0  0  0  0  0  0  0
   -5.6175   -1.0583   -0.7351 C   0  0  0  0  0  0  0  0  0  0  0  0
   -4.1451   -1.1061   -0.9420 C   0  0  0  0  0  0  0  0  0  0  0  0
   -1.7940    0.1843    0.5963 C   0  0  0  0  0  0  0  0  0  0  0  0
   -0.4779    0.6066    0.4671 C   0  0  0  0  0  0  0  0  0  0  0  0
    2.3573   -0.6369   -0.1034 H   0  0  0  0  0  0  0  0  0  0  0  0
    0.9790   -2.4382    0.0306 H   0  0  0  0  0  0  0  0  0  0  0  0
   -1.3480   -3.1786    0.2005 H   0  0  0  0  0  0  0  0  0  0  0  0
   -4.0745   -0.8260    1.1884 H   0  0  0  0  0  0  0  0  0  0  0  0
   -4.3843   -2.9449    1.8728 H   0  0  0  0  0  0  0  0  0  0  0  0
   -3.4653   -3.6965    0.5825 H   0  0  0  0  0  0  0  0  0  0  0  0
   -8.0439   -3.2110    0.2660 H   0  0  0  0  0  0  0  0  0  0  0  0
   -9.9794   -2.0027    0.1158 H   0  0  0  0  0  0  0  0  0  0  0  0
   -8.3013    1.0021   -0.6293 H   0  0  0  0  0  0  0  0  0  0  0  0
   -5.8755    1.0459   -1.1459 H   0  0  0  0  0  0  0  0  0  0  0  0
   -3.7658   -0.1445   -1.3049 H   0  0  0  0  0  0  0  0  0  0  0  0
   -3.8840   -1.8581   -1.6986 H   0  0  0  0  0  0  0  0  0  0  0  0
   -2.5699    0.9403    0.7184 H   0  0  0  0  0  0  0  0  0  0  0  0
   -0.2320    1.6640    0.5031 H   0  0  0  0  0  0  0  0  0  0  0  0
  1  2  1  0  0  0  0
  1 19  1  0  0  0  0
  2  3  1  0  0  0  0
  2 18  2  0  0  0  0
  3  4  2  0  0  0  0
  3 20  1  0  0  0  0
  4  5  1  0  0  0  0
  4 21  1  0  0  0  0
  5  6  1  0  0  0  0
  5 17  2  0  0  0  0
  6  7  1  0  0  0  0
  6 16  1  0  0  0  0
  6 22  1  0  0  0  0
  7  8  1  0  0  0  0
  7 23  1  0  0  0  0
  7 24  1  0  0  0  0
  8  9  1  0  0  0  0
  9 10  1  0  0  0  0
  9 15  2  0  0  0  0
 10 11  2  0  0  0  0
 10 25  1  0  0  0  0
 11 12  1  0  0  0  0
 11 13  1  0  0  0  0
 12 26  1  0  0  0  0
 13 14  2  0  0  0  0
 13 27  1  0  0  0  0
 14 15  1  0  0  0  0
 14 28  1  0  0  0  0
 15 16  1  0  0  0  0
 16 29  1  0  0  0  0
 16 30  1  0  0  0  0
 17 18  1  0  0  0  0
 17 31  1  0  0  0  0
 18 32  1  0  0  0  0
M  END
>  <Line_Number>
30


> <IC50>
92900

$$$$
