15785639.0
 OpenBabel09302502333D

 33 34  0  0  1  0  0  0  0  0999 V2000
    2.7581   -0.5213   -1.5954 C   0  0  0  0  0  0  0  0  0  0  0  0
    2.4581    0.0364   -0.1945 C   0  0  0  0  0  0  0  0  0  0  0  0
    0.9373    0.0815    0.0106 C   0  0  0  0  0  0  0  0  0  0  0  0
    3.1059   -0.8126    0.9281 C   0  0  0  0  0  0  0  0  0  0  0  0
    4.6488   -0.9064    0.8684 C   0  0  1  0  0  0  0  0  0  0  0  0
    5.2985    0.4549    0.9894 C   0  0  0  0  0  0  0  0  0  0  0  0
    5.1557    1.1173    2.0077 O   0  0  0  0  0  0  0  0  0  0  0  0
    6.0215    0.9680   -0.0288 O   0  0  0  0  0  0  0  0  0  0  0  0
    5.1240   -1.8218    1.9226 N   0  0  0  0  0  0  0  0  0  0  0  0
    4.8092   -1.5616    3.6844 Se  0  0  0  0  0  0  0  0  0  0  0  0
    5.5771   -3.1827    3.9456 C   0  0  0  0  0  0  0  0  0  0  0  0
    5.7104   -3.8310    5.1750 C   0  0  0  0  0  0  0  0  0  0  0  0
    6.3208   -5.0930    5.2149 C   0  0  0  0  0  0  0  0  0  0  0  0
    6.7933   -5.6880    4.0320 C   0  0  0  0  0  0  0  0  0  0  0  0
    6.6532   -5.0248    2.8046 C   0  0  0  0  0  0  0  0  0  0  0  0
    6.0342   -3.7679    2.7822 C   0  0  0  0  0  0  0  0  0  0  0  0
    5.7785   -2.9977    1.6692 C   0  0  0  0  0  0  0  0  0  0  0  0
    6.0829   -3.3513    0.5423 O   0  0  0  0  0  0  0  0  0  0  0  0
    2.2515    0.0949   -2.3679 H   0  0  0  0  0  0  0  0  0  0  0  0
    2.3993   -1.5698   -1.6822 H   0  0  0  0  0  0  0  0  0  0  0  0
    3.8421   -0.4901   -1.8217 H   0  0  0  0  0  0  0  0  0  0  0  0
    2.8421    1.0784   -0.1343 H   0  0  0  0  0  0  0  0  0  0  0  0
    0.5012   -0.9385   -0.0618 H   0  0  0  0  0  0  0  0  0  0  0  0
    0.4651    0.7249   -0.7624 H   0  0  0  0  0  0  0  0  0  0  0  0
    0.6914    0.5046    1.0078 H   0  0  0  0  0  0  0  0  0  0  0  0
    2.6927   -1.8443    0.8772 H   0  0  0  0  0  0  0  0  0  0  0  0
    2.8139   -0.3789    1.9101 H   0  0  0  0  0  0  0  0  0  0  0  0
    4.9242   -1.3310   -0.1166 H   0  0  0  0  0  0  0  0  0  0  0  0
    6.1326    0.4975   -0.8661 H   0  0  0  0  0  0  0  0  0  0  0  0
    5.3436   -3.3710    6.0843 H   0  0  0  0  0  0  0  0  0  0  0  0
    6.4261   -5.6126    6.1587 H   0  0  0  0  0  0  0  0  0  0  0  0
    7.2618   -6.6627    4.0676 H   0  0  0  0  0  0  0  0  0  0  0  0
    7.0095   -5.4881    1.8930 H   0  0  0  0  0  0  0  0  0  0  0  0
  1  2  1  0  0  0  0
  1 19  1  0  0  0  0
  1 20  1  0  0  0  0
  1 21  1  0  0  0  0
  2  3  1  0  0  0  0
  2  4  1  0  0  0  0
  2 22  1  0  0  0  0
  3 23  1  0  0  0  0
  3 24  1  0  0  0  0
  3 25  1  0  0  0  0
  4  5  1  0  0  0  0
  4 26  1  0  0  0  0
  4 27  1  0  0  0  0
  5  6  1  0  0  0  0
  5  9  1  0  0  0  0
  5 28  1  6  0  0  0
  6  7  2  0  0  0  0
  6  8  1  0  0  0  0
  8 29  1  0  0  0  0
  9 10  1  0  0  0  0
  9 17  1  0  0  0  0
 10 11  1  0  0  0  0
 11 12  1  0  0  0  0
 11 16  2  0  0  0  0
 12 13  2  0  0  0  0
 12 30  1  0  0  0  0
 13 14  1  0  0  0  0
 13 31  1  0  0  0  0
 14 15  2  0  0  0  0
 14 32  1  0  0  0  0
 15 16  1  0  0  0  0
 15 33  1  0  0  0  0
 16 17  1  0  0  0  0
 17 18  2  0  0  0  0
M  END
>  <Line_Number>
310


> <IC50>
69500

$$$$
