10492238.0
 OpenBabel09302502333D

 24 25  0  0  1  0  0  0  0  0999 V2000
    3.5406    0.4017    1.1342 C   0  0  0  0  0  0  0  0  0  0  0  0
    2.5772   -0.1854    0.0917 C   0  0  1  0  0  0  0  0  0  0  0  0
    1.1667    0.3458    0.2385 C   0  0  0  0  0  0  0  0  0  0  0  0
    0.8894    1.1692    1.0971 O   0  0  0  0  0  0  0  0  0  0  0  0
    0.1926   -0.0950   -0.5863 O   0  0  0  0  0  0  0  0  0  0  0  0
    3.0680    0.0986   -1.2652 N   0  0  0  0  0  0  0  0  0  0  0  0
    3.3110    1.7805   -1.8775 Se  0  0  0  0  0  0  0  0  0  0  0  0
    3.8381    1.0127   -3.4315 C   0  0  0  0  0  0  0  0  0  0  0  0
    4.2529    1.7019   -4.5721 C   0  0  0  0  0  0  0  0  0  0  0  0
    4.6232    0.9705   -5.7091 C   0  0  0  0  0  0  0  0  0  0  0  0
    4.5728   -0.4342   -5.6947 C   0  0  0  0  0  0  0  0  0  0  0  0
    4.1582   -1.1140   -4.5390 C   0  0  0  0  0  0  0  0  0  0  0  0
    3.7944   -0.3679   -3.4103 C   0  0  0  0  0  0  0  0  0  0  0  0
    3.3669   -0.8605   -2.1952 C   0  0  0  0  0  0  0  0  0  0  0  0
    3.2561   -2.0536   -1.9679 O   0  0  0  0  0  0  0  0  0  0  0  0
    3.1907    0.1600    2.1604 H   0  0  0  0  0  0  0  0  0  0  0  0
    3.6072    1.5067    1.0358 H   0  0  0  0  0  0  0  0  0  0  0  0
    4.5550   -0.0287    0.9971 H   0  0  0  0  0  0  0  0  0  0  0  0
    2.5317   -1.2832    0.2608 H   0  0  0  0  0  0  0  0  0  0  0  0
    0.3722   -0.7434   -1.2815 H   0  0  0  0  0  0  0  0  0  0  0  0
    4.2883    2.7840   -4.5795 H   0  0  0  0  0  0  0  0  0  0  0  0
    4.9458    1.4903   -6.6023 H   0  0  0  0  0  0  0  0  0  0  0  0
    4.8563   -0.9926   -6.5773 H   0  0  0  0  0  0  0  0  0  0  0  0
    4.1210   -2.1965   -4.5297 H   0  0  0  0  0  0  0  0  0  0  0  0
  1  2  1  0  0  0  0
  1 16  1  0  0  0  0
  1 17  1  0  0  0  0
  1 18  1  0  0  0  0
  2  3  1  0  0  0  0
  2  6  1  0  0  0  0
  2 19  1  1  0  0  0
  3  4  2  0  0  0  0
  3  5  1  0  0  0  0
  5 20  1  0  0  0  0
  6  7  1  0  0  0  0
  6 14  1  0  0  0  0
  7  8  1  0  0  0  0
  8  9  1  0  0  0  0
  8 13  2  0  0  0  0
  9 10  2  0  0  0  0
  9 21  1  0  0  0  0
 10 11  1  0  0  0  0
 10 22  1  0  0  0  0
 11 12  2  0  0  0  0
 11 23  1  0  0  0  0
 12 13  1  0  0  0  0
 12 24  1  0  0  0  0
 13 14  1  0  0  0  0
 14 15  2  0  0  0  0
M  END
>  <Line_Number>
311


> <IC50>
196000

$$$$
