155528533.0
 OpenBabel09302502333D

 56 57  0  0  0  0  0  0  0  0999 V2000
   16.0768   -4.6078   -4.4554 O   0  0  0  0  0  0  0  0  0  0  0  0
   15.4912   -5.6770   -4.3902 C   0  0  0  0  0  0  0  0  0  0  0  0
   16.1008   -6.7926   -4.8447 O   0  0  0  0  0  0  0  0  0  0  0  0
   14.1112   -5.7380   -3.7916 C   0  0  0  0  0  0  0  0  0  0  0  0
   13.0828   -6.2336   -4.8189 C   0  0  0  0  0  0  0  0  0  0  0  0
   11.6710   -6.3038   -4.2246 C   0  0  0  0  0  0  0  0  0  0  0  0
   11.2407   -4.9861   -3.8001 N   0  0  0  0  0  0  0  0  0  0  0  0
   10.9009   -4.6742   -2.5141 C   0  0  0  0  0  0  0  0  0  0  0  0
   11.0174   -5.5242   -1.6416 O   0  0  0  0  0  0  0  0  0  0  0  0
   10.4676   -3.2939   -2.1099 C   0  0  0  0  0  0  0  0  0  0  0  0
   10.7820   -2.8931   -0.7921 C   0  0  0  0  0  0  0  0  0  0  0  0
   10.4810   -1.6156   -0.3350 C   0  0  0  0  0  0  0  0  0  0  0  0
    9.8404   -0.7078   -1.1710 C   0  0  0  0  0  0  0  0  0  0  0  0
    9.4876   -1.0835   -2.4745 C   0  0  0  0  0  0  0  0  0  0  0  0
    9.7862   -2.3654   -2.9606 C   0  0  0  0  0  0  0  0  0  0  0  0
    9.2379   -2.8019   -4.7837 Se  0  0  0  0  0  0  0  0  0  0  0  0
    6.9062   -2.2999   -4.7384 Se  0  0  0  0  0  0  0  0  0  0  0  0
    6.3476   -3.6441   -3.4592 C   0  0  0  0  0  0  0  0  0  0  0  0
    6.6147   -4.9675   -3.8502 C   0  0  0  0  0  0  0  0  0  0  0  0
    6.2838   -6.0441   -3.0322 C   0  0  0  0  0  0  0  0  0  0  0  0
    5.6841   -5.8194   -1.8022 C   0  0  0  0  0  0  0  0  0  0  0  0
    5.3937   -4.5196   -1.3927 C   0  0  0  0  0  0  0  0  0  0  0  0
    5.6959   -3.3902   -2.2006 C   0  0  0  0  0  0  0  0  0  0  0  0
    5.2564   -2.0433   -1.6388 C   0  0  0  0  0  0  0  0  0  0  0  0
    4.8064   -2.0233   -0.5013 O   0  0  0  0  0  0  0  0  0  0  0  0
    5.2870   -0.8694   -2.3358 N   0  0  0  0  0  0  0  0  0  0  0  0
    4.7946    0.3978   -1.8290 C   0  0  0  0  0  0  0  0  0  0  0  0
    3.7124    0.9511   -2.7695 C   0  0  0  0  0  0  0  0  0  0  0  0
    2.4945    0.0194   -2.8636 C   0  0  0  0  0  0  0  0  0  0  0  0
    1.4493    0.5822   -3.7894 C   0  0  0  0  0  0  0  0  0  0  0  0
    0.3391    0.8487   -3.3583 O   0  0  0  0  0  0  0  0  0  0  0  0
    1.7135    0.7806   -5.0992 O   0  0  0  0  0  0  0  0  0  0  0  0
   15.6790   -7.6611   -4.7928 H   0  0  0  0  0  0  0  0  0  0  0  0
   13.8223   -4.7209   -3.4449 H   0  0  0  0  0  0  0  0  0  0  0  0
   14.1269   -6.4174   -2.9134 H   0  0  0  0  0  0  0  0  0  0  0  0
   13.3598   -7.2488   -5.1745 H   0  0  0  0  0  0  0  0  0  0  0  0
   13.0762   -5.5469   -5.6947 H   0  0  0  0  0  0  0  0  0  0  0  0
   11.6532   -7.0383   -3.3910 H   0  0  0  0  0  0  0  0  0  0  0  0
   10.9725   -6.6656   -5.0091 H   0  0  0  0  0  0  0  0  0  0  0  0
   11.2659   -4.2626   -4.5211 H   0  0  0  0  0  0  0  0  0  0  0  0
   11.2984   -3.5661   -0.1169 H   0  0  0  0  0  0  0  0  0  0  0  0
   10.7538   -1.3241    0.6740 H   0  0  0  0  0  0  0  0  0  0  0  0
    9.6160    0.2868   -0.8109 H   0  0  0  0  0  0  0  0  0  0  0  0
    8.9820   -0.3633   -3.1040 H   0  0  0  0  0  0  0  0  0  0  0  0
    7.0839   -5.1699   -4.8042 H   0  0  0  0  0  0  0  0  0  0  0  0
    6.4953   -7.0570   -3.3525 H   0  0  0  0  0  0  0  0  0  0  0  0
    5.4318   -6.6571   -1.1636 H   0  0  0  0  0  0  0  0  0  0  0  0
    4.9087   -4.4091   -0.4309 H   0  0  0  0  0  0  0  0  0  0  0  0
    5.6276   -0.8125   -3.2873 H   0  0  0  0  0  0  0  0  0  0  0  0
    5.6380    1.1205   -1.8035 H   0  0  0  0  0  0  0  0  0  0  0  0
    4.3873    0.3105   -0.7994 H   0  0  0  0  0  0  0  0  0  0  0  0
    4.1563    1.0909   -3.7811 H   0  0  0  0  0  0  0  0  0  0  0  0
    3.3871    1.9451   -2.3958 H   0  0  0  0  0  0  0  0  0  0  0  0
    2.0637   -0.1106   -1.8470 H   0  0  0  0  0  0  0  0  0  0  0  0
    2.7997   -0.9788   -3.2466 H   0  0  0  0  0  0  0  0  0  0  0  0
    2.5715    0.5608   -5.4877 H   0  0  0  0  0  0  0  0  0  0  0  0
  1  2  2  0  0  0  0
  2  3  1  0  0  0  0
  2  4  1  0  0  0  0
  3 33  1  0  0  0  0
  4  5  1  0  0  0  0
  4 34  1  0  0  0  0
  4 35  1  0  0  0  0
  5  6  1  0  0  0  0
  5 36  1  0  0  0  0
  5 37  1  0  0  0  0
  6  7  1  0  0  0  0
  6 38  1  0  0  0  0
  6 39  1  0  0  0  0
  7  8  1  0  0  0  0
  7 40  1  0  0  0  0
  8  9  2  0  0  0  0
  8 10  1  0  0  0  0
 10 11  1  0  0  0  0
 10 15  2  0  0  0  0
 11 12  2  0  0  0  0
 11 41  1  0  0  0  0
 12 13  1  0  0  0  0
 12 42  1  0  0  0  0
 13 14  2  0  0  0  0
 13 43  1  0  0  0  0
 14 15  1  0  0  0  0
 14 44  1  0  0  0  0
 15 16  1  0  0  0  0
 16 17  1  0  0  0  0
 17 18  1  0  0  0  0
 18 19  1  0  0  0  0
 18 23  2  0  0  0  0
 19 20  2  0  0  0  0
 19 45  1  0  0  0  0
 20 21  1  0  0  0  0
 20 46  1  0  0  0  0
 21 22  2  0  0  0  0
 21 47  1  0  0  0  0
 22 23  1  0  0  0  0
 22 48  1  0  0  0  0
 23 24  1  0  0  0  0
 24 25  2  0  0  0  0
 24 26  1  0  0  0  0
 26 27  1  0  0  0  0
 26 49  1  0  0  0  0
 27 28  1  0  0  0  0
 27 50  1  0  0  0  0
 27 51  1  0  0  0  0
 28 29  1  0  0  0  0
 28 52  1  0  0  0  0
 28 53  1  0  0  0  0
 29 30  1  0  0  0  0
 29 54  1  0  0  0  0
 29 55  1  0  0  0  0
 30 31  2  0  0  0  0
 30 32  1  0  0  0  0
 32 56  1  0  0  0  0
M  END
>  <Line_Number>
312


> <IC50>
35400

$$$$
