155533669.0
 OpenBabel09302502333D

 36 37  0  0  1  0  0  0  0  0999 V2000
    0.6594   -2.1061    0.2722 C   0  0  0  0  0  0  0  0  0  0  0  0
    2.0280   -2.0406    0.4359 O   0  0  0  0  0  0  0  0  0  0  0  0
    2.8527   -1.3297   -0.3783 C   0  0  0  0  0  0  0  0  0  0  0  0
    2.3952   -0.6958   -1.3200 O   0  0  0  0  0  0  0  0  0  0  0  0
    4.3547   -1.3576   -0.1643 C   0  0  1  0  0  0  0  0  0  0  0  0
    4.7536   -0.6256    1.1531 C   0  0  0  0  0  0  0  0  0  0  0  0
    4.3084   -1.1887    2.5312 C   0  0  0  0  0  0  0  0  0  0  0  0
    4.7287   -2.6444    2.7727 C   0  0  0  0  0  0  0  0  0  0  0  0
    4.9334   -0.3124    3.6323 C   0  0  0  0  0  0  0  0  0  0  0  0
    4.9106   -2.7294   -0.2651 N   0  0  0  0  0  0  0  0  0  0  0  0
    3.9161   -4.2019   -0.6308 Se  0  0  0  0  0  0  0  0  0  0  0  0
    5.4382   -5.1563   -0.4412 C   0  0  0  0  0  0  0  0  0  0  0  0
    5.5403   -6.5448   -0.5410 C   0  0  0  0  0  0  0  0  0  0  0  0
    6.7922   -7.1471   -0.3521 C   0  0  0  0  0  0  0  0  0  0  0  0
    7.9211   -6.3586   -0.0714 C   0  0  0  0  0  0  0  0  0  0  0  0
    7.8027   -4.9628    0.0128 C   0  0  0  0  0  0  0  0  0  0  0  0
    6.5425   -4.3790   -0.1758 C   0  0  0  0  0  0  0  0  0  0  0  0
    6.2415   -3.0378   -0.1078 C   0  0  0  0  0  0  0  0  0  0  0  0
    7.0945   -2.1915    0.0953 O   0  0  0  0  0  0  0  0  0  0  0  0
    0.2356   -2.8198    1.0084 H   0  0  0  0  0  0  0  0  0  0  0  0
    0.4095   -2.4685   -0.7494 H   0  0  0  0  0  0  0  0  0  0  0  0
    0.2055   -1.1057    0.4343 H   0  0  0  0  0  0  0  0  0  0  0  0
    4.8147   -0.7582   -0.9826 H   0  0  0  0  0  0  0  0  0  0  0  0
    4.3652    0.4149    1.0787 H   0  0  0  0  0  0  0  0  0  0  0  0
    5.8550   -0.5259    1.1690 H   0  0  0  0  0  0  0  0  0  0  0  0
    3.2029   -1.1284    2.6223 H   0  0  0  0  0  0  0  0  0  0  0  0
    5.8239   -2.7709    2.6396 H   0  0  0  0  0  0  0  0  0  0  0  0
    4.1833   -3.3238    2.0932 H   0  0  0  0  0  0  0  0  0  0  0  0
    4.4645   -2.9544    3.8062 H   0  0  0  0  0  0  0  0  0  0  0  0
    6.0450   -0.3581    3.5817 H   0  0  0  0  0  0  0  0  0  0  0  0
    4.6184   -0.6595    4.6391 H   0  0  0  0  0  0  0  0  0  0  0  0
    4.6206    0.7467    3.5165 H   0  0  0  0  0  0  0  0  0  0  0  0
    4.6671   -7.1471   -0.7556 H   0  0  0  0  0  0  0  0  0  0  0  0
    6.8879   -8.2227   -0.4192 H   0  0  0  0  0  0  0  0  0  0  0  0
    8.8830   -6.8304    0.0826 H   0  0  0  0  0  0  0  0  0  0  0  0
    8.6726   -4.3579    0.2362 H   0  0  0  0  0  0  0  0  0  0  0  0
  1  2  1  0  0  0  0
  1 20  1  0  0  0  0
  1 21  1  0  0  0  0
  1 22  1  0  0  0  0
  2  3  1  0  0  0  0
  3  4  2  0  0  0  0
  3  5  1  0  0  0  0
  5  6  1  0  0  0  0
  5 10  1  0  0  0  0
  5 23  1  6  0  0  0
  6  7  1  0  0  0  0
  6 24  1  0  0  0  0
  6 25  1  0  0  0  0
  7  8  1  0  0  0  0
  7  9  1  0  0  0  0
  7 26  1  0  0  0  0
  8 27  1  0  0  0  0
  8 28  1  0  0  0  0
  8 29  1  0  0  0  0
  9 30  1  0  0  0  0
  9 31  1  0  0  0  0
  9 32  1  0  0  0  0
 10 11  1  0  0  0  0
 10 18  1  0  0  0  0
 11 12  1  0  0  0  0
 12 13  1  0  0  0  0
 12 17  2  0  0  0  0
 13 14  2  0  0  0  0
 13 33  1  0  0  0  0
 14 15  1  0  0  0  0
 14 34  1  0  0  0  0
 15 16  2  0  0  0  0
 15 35  1  0  0  0  0
 16 17  1  0  0  0  0
 16 36  1  0  0  0  0
 17 18  1  0  0  0  0
 18 19  2  0  0  0  0
M  END
>  <Line_Number>
313


> <IC50>
22020

$$$$
