10782348.0
 OpenBabel09302502333D

 36 37  0  0  1  0  0  0  0  0999 V2000
    5.3233    0.7453   -3.4354 C   0  0  0  0  0  0  0  0  0  0  0  0
    4.9019    1.2538   -2.2235 O   0  0  0  0  0  0  0  0  0  0  0  0
    5.1697    0.6834   -1.0197 C   0  0  0  0  0  0  0  0  0  0  0  0
    5.8827   -0.3090   -0.9499 O   0  0  0  0  0  0  0  0  0  0  0  0
    4.5605    1.2555    0.2463 C   0  0  2  0  0  0  0  0  0  0  0  0
    3.0164    1.1402    0.1341 C   0  0  0  0  0  0  0  0  0  0  0  0
    2.1500    1.3716    1.4004 C   0  0  0  0  0  0  0  0  0  0  0  0
    2.5751    0.4796    2.5766 C   0  0  0  0  0  0  0  0  0  0  0  0
    2.0666    2.8362    1.8348 C   0  0  0  0  0  0  0  0  0  0  0  0
    5.0512    2.6331    0.4446 N   0  0  0  0  0  0  0  0  0  0  0  0
    4.8010    3.9515   -0.7697 Se  0  0  0  0  0  0  0  0  0  0  0  0
    5.9453    4.9404    0.2259 C   0  0  0  0  0  0  0  0  0  0  0  0
    6.4055    6.2179   -0.1019 C   0  0  0  0  0  0  0  0  0  0  0  0
    7.2990    6.8634    0.7645 C   0  0  0  0  0  0  0  0  0  0  0  0
    7.7167    6.2307    1.9476 C   0  0  0  0  0  0  0  0  0  0  0  0
    7.2506    4.9418    2.2634 C   0  0  0  0  0  0  0  0  0  0  0  0
    6.3644    4.3064    1.3787 C   0  0  0  0  0  0  0  0  0  0  0  0
    5.8529    3.0260    1.4869 C   0  0  0  0  0  0  0  0  0  0  0  0
    6.1396    2.2794    2.4072 O   0  0  0  0  0  0  0  0  0  0  0  0
    5.0007    1.4260   -4.2515 H   0  0  0  0  0  0  0  0  0  0  0  0
    4.8679   -0.2535   -3.6083 H   0  0  0  0  0  0  0  0  0  0  0  0
    6.4308    0.6626   -3.4599 H   0  0  0  0  0  0  0  0  0  0  0  0
    4.8953    0.6087    1.0845 H   0  0  0  0  0  0  0  0  0  0  0  0
    2.6433    1.7821   -0.6929 H   0  0  0  0  0  0  0  0  0  0  0  0
    2.8108    0.0868   -0.1588 H   0  0  0  0  0  0  0  0  0  0  0  0
    1.1158    1.0714    1.1167 H   0  0  0  0  0  0  0  0  0  0  0  0
    3.5736    0.7732    2.9622 H   0  0  0  0  0  0  0  0  0  0  0  0
    2.6043   -0.5863    2.2642 H   0  0  0  0  0  0  0  0  0  0  0  0
    1.8440    0.5722    3.4089 H   0  0  0  0  0  0  0  0  0  0  0  0
    3.0460    3.2171    2.1818 H   0  0  0  0  0  0  0  0  0  0  0  0
    1.3343    2.9296    2.6687 H   0  0  0  0  0  0  0  0  0  0  0  0
    1.6981    3.4602    0.9934 H   0  0  0  0  0  0  0  0  0  0  0  0
    6.0834    6.7017   -1.0149 H   0  0  0  0  0  0  0  0  0  0  0  0
    7.6695    7.8511    0.5189 H   0  0  0  0  0  0  0  0  0  0  0  0
    8.4081    6.7362    2.6103 H   0  0  0  0  0  0  0  0  0  0  0  0
    7.5905    4.4545    3.1683 H   0  0  0  0  0  0  0  0  0  0  0  0
  1  2  1  0  0  0  0
  1 20  1  0  0  0  0
  1 21  1  0  0  0  0
  1 22  1  0  0  0  0
  2  3  1  0  0  0  0
  3  4  2  0  0  0  0
  5 10  1  0  0  0  0
  5  6  1  0  0  0  0
  5  3  1  0  0  0  0
  5 23  1  1  0  0  0
  6  7  1  0  0  0  0
  6 24  1  0  0  0  0
  6 25  1  0  0  0  0
  7  8  1  0  0  0  0
  7  9  1  0  0  0  0
  7 26  1  0  0  0  0
  8 27  1  0  0  0  0
  8 28  1  0  0  0  0
  8 29  1  0  0  0  0
  9 30  1  0  0  0  0
  9 31  1  0  0  0  0
  9 32  1  0  0  0  0
 10 11  1  0  0  0  0
 10 18  1  0  0  0  0
 11 12  1  0  0  0  0
 12 13  1  0  0  0  0
 12 17  2  0  0  0  0
 13 14  2  0  0  0  0
 13 33  1  0  0  0  0
 14 15  1  0  0  0  0
 14 34  1  0  0  0  0
 15 16  2  0  0  0  0
 15 35  1  0  0  0  0
 16 17  1  0  0  0  0
 16 36  1  0  0  0  0
 17 18  1  0  0  0  0
 18 19  2  0  0  0  0
M  END
>  <Line_Number>
314


> <IC50>
3300

$$$$
