139673776.0
 OpenBabel09302502333D

 30 31  0  0  1  0  0  0  0  0999 V2000
    0.8650   -0.0902    0.1557 C   0  0  0  0  0  0  0  0  0  0  0  0
    2.3942   -0.0345    0.0187 C   0  0  0  0  0  0  0  0  0  0  0  0
    2.9825    0.7074    1.2314 C   0  0  0  0  0  0  0  0  0  0  0  0
    3.0247   -1.4518   -0.1249 C   0  0  1  0  0  0  0  0  0  0  0  0
    2.4801   -2.1974   -1.3275 C   0  0  0  0  0  0  0  0  0  0  0  0
    2.6049   -1.7311   -2.4491 O   0  0  0  0  0  0  0  0  0  0  0  0
    1.8550   -3.3857   -1.1782 O   0  0  0  0  0  0  0  0  0  0  0  0
    4.4912   -1.3440   -0.2341 N   0  0  0  0  0  0  0  0  0  0  0  0
    5.3069   -0.3699   -1.5206 Se  0  0  0  0  0  0  0  0  0  0  0  0
    6.8586   -0.7859   -0.6897 C   0  0  0  0  0  0  0  0  0  0  0  0
    8.1223   -0.3358   -1.0730 C   0  0  0  0  0  0  0  0  0  0  0  0
    9.2399   -0.7430   -0.3319 C   0  0  0  0  0  0  0  0  0  0  0  0
    9.0824   -1.5961    0.7737 C   0  0  0  0  0  0  0  0  0  0  0  0
    7.8065   -2.0369    1.1505 C   0  0  0  0  0  0  0  0  0  0  0  0
    6.6976   -1.6147    0.4032 C   0  0  0  0  0  0  0  0  0  0  0  0
    5.3739   -1.9160    0.6421 C   0  0  0  0  0  0  0  0  0  0  0  0
    5.0143   -2.6162    1.5747 O   0  0  0  0  0  0  0  0  0  0  0  0
    0.4560    0.9408    0.2334 H   0  0  0  0  0  0  0  0  0  0  0  0
    0.5712   -0.6596    1.0628 H   0  0  0  0  0  0  0  0  0  0  0  0
    0.4056   -0.5658   -0.7354 H   0  0  0  0  0  0  0  0  0  0  0  0
    2.6291    0.5598   -0.8914 H   0  0  0  0  0  0  0  0  0  0  0  0
    2.7542    0.1639    2.1730 H   0  0  0  0  0  0  0  0  0  0  0  0
    2.5587    1.7322    1.2954 H   0  0  0  0  0  0  0  0  0  0  0  0
    4.0841    0.8099    1.1387 H   0  0  0  0  0  0  0  0  0  0  0  0
    2.7631   -2.0373    0.7845 H   0  0  0  0  0  0  0  0  0  0  0  0
    1.7492   -3.8062   -0.3133 H   0  0  0  0  0  0  0  0  0  0  0  0
    8.2369    0.3204   -1.9261 H   0  0  0  0  0  0  0  0  0  0  0  0
   10.2261   -0.3986   -0.6139 H   0  0  0  0  0  0  0  0  0  0  0  0
    9.9497   -1.9080    1.3411 H   0  0  0  0  0  0  0  0  0  0  0  0
    7.6851   -2.6890    2.0074 H   0  0  0  0  0  0  0  0  0  0  0  0
  1  2  1  0  0  0  0
  1 18  1  0  0  0  0
  1 19  1  0  0  0  0
  1 20  1  0  0  0  0
  2  3  1  0  0  0  0
  2  4  1  0  0  0  0
  2 21  1  0  0  0  0
  3 22  1  0  0  0  0
  3 23  1  0  0  0  0
  3 24  1  0  0  0  0
  4  5  1  0  0  0  0
  4  8  1  0  0  0  0
  4 25  1  1  0  0  0
  5  6  2  0  0  0  0
  5  7  1  0  0  0  0
  7 26  1  0  0  0  0
  8  9  1  0  0  0  0
  8 16  1  0  0  0  0
  9 10  1  0  0  0  0
 10 11  1  0  0  0  0
 10 15  2  0  0  0  0
 11 12  2  0  0  0  0
 11 27  1  0  0  0  0
 12 13  1  0  0  0  0
 12 28  1  0  0  0  0
 13 14  2  0  0  0  0
 13 29  1  0  0  0  0
 14 15  1  0  0  0  0
 14 30  1  0  0  0  0
 15 16  1  0  0  0  0
 16 17  2  0  0  0  0
M  END
>  <Line_Number>
315


> <IC50>
31900

$$$$
