10684430.0
 OpenBabel09302502333D

 27 28  0  0  1  0  0  0  0  0999 V2000
    3.7429   -1.9253    2.9317 C   0  0  0  0  0  0  0  0  0  0  0  0
    4.3493   -1.0915    2.0180 O   0  0  0  0  0  0  0  0  0  0  0  0
    3.8383    0.1043    1.6244 C   0  0  0  0  0  0  0  0  0  0  0  0
    2.7733    0.5039    2.0768 O   0  0  0  0  0  0  0  0  0  0  0  0
    4.5822    0.9600    0.6269 C   0  0  2  0  0  0  0  0  0  0  0  0
    5.8591    0.2788    0.1146 C   0  0  0  0  0  0  0  0  0  0  0  0
    4.8936    2.2690    1.2195 N   0  0  0  0  0  0  0  0  0  0  0  0
    4.2453    3.7948    0.5121 Se  0  0  0  0  0  0  0  0  0  0  0  0
    5.1000    4.6472    1.8649 C   0  0  0  0  0  0  0  0  0  0  0  0
    5.0973    6.0263    2.0823 C   0  0  0  0  0  0  0  0  0  0  0  0
    5.8033    6.5417    3.1793 C   0  0  0  0  0  0  0  0  0  0  0  0
    6.5013    5.6776    4.0407 C   0  0  0  0  0  0  0  0  0  0  0  0
    6.4954    4.2937    3.8098 C   0  0  0  0  0  0  0  0  0  0  0  0
    5.7836    3.7958    2.7106 C   0  0  0  0  0  0  0  0  0  0  0  0
    5.6586    2.4757    2.3373 C   0  0  0  0  0  0  0  0  0  0  0  0
    6.1757    1.5618    2.9583 O   0  0  0  0  0  0  0  0  0  0  0  0
    4.3735   -2.8270    3.0726 H   0  0  0  0  0  0  0  0  0  0  0  0
    2.7446   -2.2394    2.5591 H   0  0  0  0  0  0  0  0  0  0  0  0
    3.6351   -1.4073    3.9086 H   0  0  0  0  0  0  0  0  0  0  0  0
    3.9177    1.1071   -0.2529 H   0  0  0  0  0  0  0  0  0  0  0  0
    6.5709    0.0726    0.9405 H   0  0  0  0  0  0  0  0  0  0  0  0
    6.3593    0.9294   -0.6334 H   0  0  0  0  0  0  0  0  0  0  0  0
    5.6024   -0.6845   -0.3763 H   0  0  0  0  0  0  0  0  0  0  0  0
    4.5580    6.6884    1.4174 H   0  0  0  0  0  0  0  0  0  0  0  0
    5.8095    7.6082    3.3632 H   0  0  0  0  0  0  0  0  0  0  0  0
    7.0436    6.0813    4.8858 H   0  0  0  0  0  0  0  0  0  0  0  0
    7.0319    3.6294    4.4757 H   0  0  0  0  0  0  0  0  0  0  0  0
  1  2  1  0  0  0  0
  1 17  1  0  0  0  0
  1 18  1  0  0  0  0
  1 19  1  0  0  0  0
  2  3  1  0  0  0  0
  3  4  2  0  0  0  0
  5  7  1  0  0  0  0
  5  6  1  0  0  0  0
  5  3  1  0  0  0  0
  5 20  1  6  0  0  0
  6 21  1  0  0  0  0
  6 22  1  0  0  0  0
  6 23  1  0  0  0  0
  7  8  1  0  0  0  0
  7 15  1  0  0  0  0
  8  9  1  0  0  0  0
  9 10  1  0  0  0  0
  9 14  2  0  0  0  0
 10 11  2  0  0  0  0
 10 24  1  0  0  0  0
 11 12  1  0  0  0  0
 11 25  1  0  0  0  0
 12 13  2  0  0  0  0
 12 26  1  0  0  0  0
 13 14  1  0  0  0  0
 13 27  1  0  0  0  0
 14 15  1  0  0  0  0
 15 16  2  0  0  0  0
M  END
>  <Line_Number>
316


> <IC50>
11455

$$$$
