3012947.0
 OpenBabel09302502333D

 15 16  0  0  0  0  0  0  0  0999 V2000
   -0.2796   -2.8407    0.0262 O   0  0  0  0  0  0  0  0  0  0  0  0
   -0.0078   -1.6524    0.0095 C   0  0  0  0  0  0  0  0  0  0  0  0
    1.2764   -1.2073   -0.0065 N   0  0  0  0  0  0  0  0  0  0  0  0
    1.4217    0.5847   -0.0291 Se  0  0  0  0  0  0  0  0  0  0  0  0
   -0.3943    0.6040   -0.0158 C   0  0  0  0  0  0  0  0  0  0  0  0
   -1.1942    1.7484   -0.0249 C   0  0  0  0  0  0  0  0  0  0  0  0
   -2.5894    1.6009   -0.0131 C   0  0  0  0  0  0  0  0  0  0  0  0
   -3.1658    0.3188    0.0081 C   0  0  0  0  0  0  0  0  0  0  0  0
   -2.3501   -0.8226    0.0173 C   0  0  0  0  0  0  0  0  0  0  0  0
   -0.9597   -0.6572    0.0047 C   0  0  0  0  0  0  0  0  0  0  0  0
    2.1040   -1.8442   -0.0060 H   0  0  0  0  0  0  0  0  0  0  0  0
   -0.7474    2.7341   -0.0412 H   0  0  0  0  0  0  0  0  0  0  0  0
   -3.2241    2.4775   -0.0204 H   0  0  0  0  0  0  0  0  0  0  0  0
   -4.2427    0.2118    0.0172 H   0  0  0  0  0  0  0  0  0  0  0  0
   -2.7951   -1.8096    0.0335 H   0  0  0  0  0  0  0  0  0  0  0  0
  1  2  2  0  0  0  0
  2  3  1  0  0  0  0
  2 10  1  0  0  0  0
  3  4  1  0  0  0  0
  3 11  1  0  0  0  0
  4  5  1  0  0  0  0
  5  6  1  0  0  0  0
  5 10  2  0  0  0  0
  6  7  2  0  0  0  0
  6 12  1  0  0  0  0
  7  8  1  0  0  0  0
  7 13  1  0  0  0  0
  8  9  2  0  0  0  0
  8 14  1  0  0  0  0
  9 10  1  0  0  0  0
  9 15  1  0  0  0  0
M  END
>  <Line_Number>
317


> <IC50>
1280

$$$$
