155533555.0
 OpenBabel09302502333D

 32 34  0  0  1  0  0  0  0  0999 V2000
    3.0058   -2.1518   -3.0593 O   0  0  0  0  0  0  0  0  0  0  0  0
    1.9367   -2.4882   -2.5844 C   0  0  0  0  0  0  0  0  0  0  0  0
    0.8656   -2.8707   -3.3730 C   0  0  0  0  0  0  0  0  0  0  0  0
    0.8339   -2.9528   -4.7727 C   0  0  0  0  0  0  0  0  0  0  0  0
   -0.3462   -3.3832   -5.4012 C   0  0  0  0  0  0  0  0  0  0  0  0
   -1.4792   -3.7143   -4.6311 C   0  0  0  0  0  0  0  0  0  0  0  0
   -1.4298   -3.6169   -3.2339 C   0  0  0  0  0  0  0  0  0  0  0  0
   -0.2463   -3.1968   -2.6258 C   0  0  0  0  0  0  0  0  0  0  0  0
    0.0078   -3.0282   -0.8443 Se  0  0  0  0  0  0  0  0  0  0  0  0
    1.7008   -2.5349   -1.2318 N   0  0  0  0  0  0  0  0  0  0  0  0
    2.6396   -2.2651   -0.1193 C   0  0  2  0  0  0  0  0  0  0  0  0
    3.1337   -0.8082   -0.0803 C   0  0  0  0  0  0  0  0  0  0  0  0
    2.0523    0.0840   -0.0731 O   0  0  0  0  0  0  0  0  0  0  0  0
    3.8006   -3.2518   -0.0843 C   0  0  0  0  0  0  0  0  0  0  0  0
    3.8248   -4.2523    0.9076 C   0  0  0  0  0  0  0  0  0  0  0  0
    4.8848   -5.1613    0.9799 C   0  0  0  0  0  0  0  0  0  0  0  0
    5.9408   -5.0804    0.0713 C   0  0  0  0  0  0  0  0  0  0  0  0
    5.9386   -4.0914   -0.9120 C   0  0  0  0  0  0  0  0  0  0  0  0
    4.8796   -3.1840   -0.9934 C   0  0  0  0  0  0  0  0  0  0  0  0
    1.7034   -2.7050   -5.3683 H   0  0  0  0  0  0  0  0  0  0  0  0
   -0.3878   -3.4654   -6.4776 H   0  0  0  0  0  0  0  0  0  0  0  0
   -2.3855   -4.0441   -5.1200 H   0  0  0  0  0  0  0  0  0  0  0  0
   -2.2975   -3.8693   -2.6387 H   0  0  0  0  0  0  0  0  0  0  0  0
    2.0612   -2.4072    0.8208 H   0  0  0  0  0  0  0  0  0  0  0  0
    3.7621   -0.6495    0.8287 H   0  0  0  0  0  0  0  0  0  0  0  0
    3.7723   -0.5737   -0.9545 H   0  0  0  0  0  0  0  0  0  0  0  0
    1.6503    0.0380    0.8332 H   0  0  0  0  0  0  0  0  0  0  0  0
    3.0191   -4.3351    1.6265 H   0  0  0  0  0  0  0  0  0  0  0  0
    4.8886   -5.9271    1.7445 H   0  0  0  0  0  0  0  0  0  0  0  0
    6.7641   -5.7802    0.1322 H   0  0  0  0  0  0  0  0  0  0  0  0
    6.7625   -4.0216   -1.6107 H   0  0  0  0  0  0  0  0  0  0  0  0
    4.9315   -2.4231   -1.7530 H   0  0  0  0  0  0  0  0  0  0  0  0
  1  2  2  0  0  0  0
  2  3  1  0  0  0  0
  2 10  1  0  0  0  0
  3  4  1  0  0  0  0
  3  8  2  0  0  0  0
  4  5  2  0  0  0  0
  4 20  1  0  0  0  0
  5  6  1  0  0  0  0
  5 21  1  0  0  0  0
  6  7  2  0  0  0  0
  6 22  1  0  0  0  0
  7  8  1  0  0  0  0
  7 23  1  0  0  0  0
  8  9  1  0  0  0  0
  9 10  1  0  0  0  0
 11 14  1  0  0  0  0
 11 12  1  0  0  0  0
 11 10  1  0  0  0  0
 11 24  1  1  0  0  0
 12 13  1  0  0  0  0
 12 25  1  0  0  0  0
 12 26  1  0  0  0  0
 13 27  1  0  0  0  0
 14 15  1  0  0  0  0
 14 19  2  0  0  0  0
 15 16  2  0  0  0  0
 15 28  1  0  0  0  0
 16 17  1  0  0  0  0
 16 29  1  0  0  0  0
 17 18  2  0  0  0  0
 17 30  1  0  0  0  0
 18 19  1  0  0  0  0
 18 31  1  0  0  0  0
 19 32  1  0  0  0  0
M  END
>  <Line_Number>
318


> <IC50>
5030

$$$$
