10638072.0
 OpenBabel09302502343D

 31 33  0  0  1  0  0  0  0  0999 V2000
    2.4458   -1.4777    1.0236 C   0  0  0  0  0  0  0  0  0  0  0  0
    2.3823   -0.2414    0.0904 C   0  0  2  0  0  0  0  0  0  0  0  0
    0.8922   -0.0053   -0.1472 C   0  0  0  0  0  0  0  0  0  0  0  0
    0.0627   -0.8688   -0.8968 C   0  0  0  0  0  0  0  0  0  0  0  0
   -1.3206   -0.6885   -0.9145 C   0  0  0  0  0  0  0  0  0  0  0  0
   -1.9036    0.3289   -0.1643 C   0  0  0  0  0  0  0  0  0  0  0  0
   -1.1012    1.1885    0.5862 C   0  0  0  0  0  0  0  0  0  0  0  0
    0.2839    1.0318    0.5849 C   0  0  0  0  0  0  0  0  0  0  0  0
    3.2760   -0.4685   -1.0870 N   0  0  0  0  0  0  0  0  0  0  0  0
    2.8852   -1.8173   -2.2209 Se  0  0  0  0  0  0  0  0  0  0  0  0
    4.2149   -2.6851   -1.4053 C   0  0  0  0  0  0  0  0  0  0  0  0
    4.3354   -4.0647   -1.3133 C   0  0  0  0  0  0  0  0  0  0  0  0
    5.3875   -4.5943   -0.5515 C   0  0  0  0  0  0  0  0  0  0  0  0
    6.3206   -3.7445    0.0646 C   0  0  0  0  0  0  0  0  0  0  0  0
    6.1818   -2.3463   -0.0415 C   0  0  0  0  0  0  0  0  0  0  0  0
    5.0873   -1.8429   -0.7577 C   0  0  0  0  0  0  0  0  0  0  0  0
    4.6036   -0.5491   -0.7004 C   0  0  0  0  0  0  0  0  0  0  0  0
    5.1295    0.2917    0.0054 O   0  0  0  0  0  0  0  0  0  0  0  0
    3.4771   -1.6798    1.3765 H   0  0  0  0  0  0  0  0  0  0  0  0
    2.0774   -2.3845    0.4951 H   0  0  0  0  0  0  0  0  0  0  0  0
    1.8181   -1.3224    1.9234 H   0  0  0  0  0  0  0  0  0  0  0  0
    2.7789    0.6213    0.6725 H   0  0  0  0  0  0  0  0  0  0  0  0
    0.4372   -1.7106   -1.4445 H   0  0  0  0  0  0  0  0  0  0  0  0
   -1.9439   -1.3657   -1.4844 H   0  0  0  0  0  0  0  0  0  0  0  0
   -2.9791    0.4382   -0.1465 H   0  0  0  0  0  0  0  0  0  0  0  0
   -1.5542    1.9598    1.1933 H   0  0  0  0  0  0  0  0  0  0  0  0
    0.8772    1.6866    1.2149 H   0  0  0  0  0  0  0  0  0  0  0  0
    3.6020   -4.7149   -1.7753 H   0  0  0  0  0  0  0  0  0  0  0  0
    5.4682   -5.6633   -0.4212 H   0  0  0  0  0  0  0  0  0  0  0  0
    7.1185   -4.1538    0.6722 H   0  0  0  0  0  0  0  0  0  0  0  0
    6.8455   -1.6897    0.5038 H   0  0  0  0  0  0  0  0  0  0  0  0
  1 19  1  0  0  0  0
  1 20  1  0  0  0  0
  1 21  1  0  0  0  0
  2  9  1  0  0  0  0
  2  3  1  0  0  0  0
  2  1  1  0  0  0  0
  2 22  1  1  0  0  0
  3  4  1  0  0  0  0
  3  8  2  0  0  0  0
  4  5  2  0  0  0  0
  4 23  1  0  0  0  0
  5  6  1  0  0  0  0
  5 24  1  0  0  0  0
  6  7  2  0  0  0  0
  6 25  1  0  0  0  0
  7  8  1  0  0  0  0
  7 26  1  0  0  0  0
  8 27  1  0  0  0  0
  9 10  1  0  0  0  0
  9 17  1  0  0  0  0
 10 11  1  0  0  0  0
 11 12  1  0  0  0  0
 11 16  2  0  0  0  0
 12 13  2  0  0  0  0
 12 28  1  0  0  0  0
 13 14  1  0  0  0  0
 13 29  1  0  0  0  0
 14 15  2  0  0  0  0
 14 30  1  0  0  0  0
 15 16  1  0  0  0  0
 15 31  1  0  0  0  0
 16 17  1  0  0  0  0
 17 18  2  0  0  0  0
M  END
>  <Line_Number>
319


> <IC50>
5040

$$$$
