13940833.0
 OpenBabel09302502333D

 33 35  0  0  0  0  0  0  0  0999 V2000
    3.7815    1.5332   -1.0715 C   0  0  0  0  0  0  0  0  0  0  0  0
    3.8529    0.3367   -0.2763 O   0  0  0  0  0  0  0  0  0  0  0  0
    4.0191    0.4971    1.0789 C   0  0  0  0  0  0  0  0  0  0  0  0
    4.1218    1.7127    1.7144 C   0  0  0  0  0  0  0  0  0  0  0  0
    4.3050    1.7648    3.1325 C   0  0  0  0  0  0  0  0  0  0  0  0
    4.4430    0.6386    4.0032 C   0  0  0  0  0  0  0  0  0  0  0  0
    4.9003    0.8730    5.5101 C   0  0  0  0  0  0  0  0  0  0  0  0
    5.2118    2.0112    6.2009 C   0  0  0  0  0  0  0  0  0  0  0  0
    5.1087    1.7230    7.7380 O   0  0  0  0  0  0  0  0  0  0  0  0
    5.9185    0.7004    8.1239 C   0  0  0  0  0  0  0  0  0  0  0  0
    7.0145    0.9268    8.9284 C   0  0  0  0  0  0  0  0  0  0  0  0
    7.7844   -0.1644    9.2945 C   0  0  0  0  0  0  0  0  0  0  0  0
    8.8207   -0.0087   10.1683 O   0  0  0  0  0  0  0  0  0  0  0  0
    7.4638   -1.4455    8.8412 C   0  0  0  0  0  0  0  0  0  0  0  0
    6.4002   -1.6300    7.9448 C   0  0  0  0  0  0  0  0  0  0  0  0
    5.6929   -0.5189    7.5040 C   0  0  0  0  0  0  0  0  0  0  0  0
    4.7760   -0.4449    6.3157 C   0  0  0  0  0  0  0  0  0  0  0  0
    4.0385   -0.5451    3.3595 C   0  0  0  0  0  0  0  0  0  0  0  0
    3.9087   -0.6220    1.9165 C   0  0  0  0  0  0  0  0  0  0  0  0
    3.6737    1.2586   -2.1323 H   0  0  0  0  0  0  0  0  0  0  0  0
    4.7100    2.1071   -0.9920 H   0  0  0  0  0  0  0  0  0  0  0  0
    2.9159    2.1603   -0.8321 H   0  0  0  0  0  0  0  0  0  0  0  0
    4.0178    2.6379    1.1524 H   0  0  0  0  0  0  0  0  0  0  0  0
    4.2403    2.7693    3.5446 H   0  0  0  0  0  0  0  0  0  0  0  0
    5.4702    2.9117    6.8163 H   0  0  0  0  0  0  0  0  0  0  0  0
    7.2743    1.9470    9.1899 H   0  0  0  0  0  0  0  0  0  0  0  0
    8.8193    0.9192   10.4599 H   0  0  0  0  0  0  0  0  0  0  0  0
    8.0462   -2.2973    9.1791 H   0  0  0  0  0  0  0  0  0  0  0  0
    6.1414   -2.6329    7.6093 H   0  0  0  0  0  0  0  0  0  0  0  0
    3.7336   -0.5334    6.6372 H   0  0  0  0  0  0  0  0  0  0  0  0
    5.0288   -1.2819    5.6596 H   0  0  0  0  0  0  0  0  0  0  0  0
    3.6530   -1.3984    3.9230 H   0  0  0  0  0  0  0  0  0  0  0  0
    3.7143   -1.5844    1.4422 H   0  0  0  0  0  0  0  0  0  0  0  0
  1  2  1  0  0  0  0
  1 20  1  0  0  0  0
  1 21  1  0  0  0  0
  1 22  1  0  0  0  0
  2  3  1  0  0  0  0
  3  4  1  0  0  0  0
  3 19  2  0  0  0  0
  4  5  2  0  0  0  0
  4 23  1  0  0  0  0
  5  6  1  0  0  0  0
  5 24  1  0  0  0  0
  6  7  1  0  0  0  0
  6 18  2  0  0  0  0
  7  8  2  3  0  0  0
  7 17  1  0  0  0  0
  8  9  1  0  0  0  0
  8 25  1  0  0  0  0
  9 10  1  0  0  0  0
 10 11  1  0  0  0  0
 10 16  2  0  0  0  0
 11 12  2  0  0  0  0
 11 26  1  0  0  0  0
 12 13  1  0  0  0  0
 12 14  1  0  0  0  0
 13 27  1  0  0  0  0
 14 15  2  0  0  0  0
 14 28  1  0  0  0  0
 15 16  1  0  0  0  0
 15 29  1  0  0  0  0
 16 17  1  0  0  0  0
 17 30  1  0  0  0  0
 17 31  1  0  0  0  0
 18 19  1  0  0  0  0
 18 32  1  0  0  0  0
 19 33  1  0  0  0  0
M  END
>  <Line_Number>
31


> <IC50>
86200

$$$$
