127040597.0
 OpenBabel09302502343D

 50 51  0  0  1  0  0  0  0  0999 V2000
   -2.1775    2.7665   -4.8331 C   0  0  0  0  0  0  0  0  0  0  0  0
   -0.9786    2.4170   -3.9442 C   0  0  2  0  0  0  0  0  0  0  0  0
   -1.3583    2.4430   -2.5316 N   0  0  0  0  0  0  0  0  0  0  0  0
   -1.3777    1.3174   -1.7606 C   0  0  0  0  0  0  0  0  0  0  0  0
   -1.1040    0.2418   -2.2790 O   0  0  0  0  0  0  0  0  0  0  0  0
   -1.8118    1.3040   -0.3208 C   0  0  0  0  0  0  0  0  0  0  0  0
   -2.3440    0.0754    0.1459 C   0  0  0  0  0  0  0  0  0  0  0  0
   -2.8257   -0.0725    1.4440 C   0  0  0  0  0  0  0  0  0  0  0  0
   -2.7864    0.9983    2.3230 C   0  0  0  0  0  0  0  0  0  0  0  0
   -2.2442    2.2122    1.9123 C   0  0  0  0  0  0  0  0  0  0  0  0
   -1.7409    2.3943    0.6113 C   0  0  0  0  0  0  0  0  0  0  0  0
   -0.9878    4.1745    0.3574 Se  0  0  0  0  0  0  0  0  0  0  0  0
    1.1653    3.7172   -0.6278 Se  0  0  0  0  0  0  0  0  0  0  0  0
    2.2169    2.8407    0.7662 C   0  0  0  0  0  0  0  0  0  0  0  0
    1.7443    1.5847    1.1744 C   0  0  0  0  0  0  0  0  0  0  0  0
    2.4900    0.7749    2.0257 C   0  0  0  0  0  0  0  0  0  0  0  0
    3.7273    1.2008    2.4816 C   0  0  0  0  0  0  0  0  0  0  0  0
    4.2168    2.4508    2.1143 C   0  0  0  0  0  0  0  0  0  0  0  0
    3.4865    3.3155    1.2574 C   0  0  0  0  0  0  0  0  0  0  0  0
    4.0717    4.6671    0.8790 C   0  0  0  0  0  0  0  0  0  0  0  0
    3.3860    5.4462    0.2325 O   0  0  0  0  0  0  0  0  0  0  0  0
    5.3390    5.0464    1.2498 N   0  0  0  0  0  0  0  0  0  0  0  0
    5.9440    6.3363    0.9316 C   0  0  1  0  0  0  0  0  0  0  0  0
    6.3677    7.0537    2.2222 C   0  0  0  0  0  0  0  0  0  0  0  0
    7.1492    6.1241    0.0423 C   0  0  0  0  0  0  0  0  0  0  0  0
    7.1810    6.6425   -1.0621 O   0  0  0  0  0  0  0  0  0  0  0  0
    8.1973    5.3698    0.4437 O   0  0  0  0  0  0  0  0  0  0  0  0
    0.1638    3.3691   -4.1902 C   0  0  0  0  0  0  0  0  0  0  0  0
    1.2250    2.9422   -4.6164 O   0  0  0  0  0  0  0  0  0  0  0  0
    0.0336    4.6930   -3.9539 O   0  0  0  0  0  0  0  0  0  0  0  0
   -1.8777    2.7414   -5.9045 H   0  0  0  0  0  0  0  0  0  0  0  0
   -2.5770    3.7745   -4.5983 H   0  0  0  0  0  0  0  0  0  0  0  0
   -2.9877    2.0198   -4.6881 H   0  0  0  0  0  0  0  0  0  0  0  0
   -0.6491    1.3983   -4.2534 H   0  0  0  0  0  0  0  0  0  0  0  0
   -1.6737    3.3381   -2.1338 H   0  0  0  0  0  0  0  0  0  0  0  0
   -2.4147   -0.7874   -0.5066 H   0  0  0  0  0  0  0  0  0  0  0  0
   -3.2395   -1.0205    1.7653 H   0  0  0  0  0  0  0  0  0  0  0  0
   -3.1697    0.8860    3.3295 H   0  0  0  0  0  0  0  0  0  0  0  0
   -2.2164    3.0270    2.6251 H   0  0  0  0  0  0  0  0  0  0  0  0
    0.8035    1.2124    0.8014 H   0  0  0  0  0  0  0  0  0  0  0  0
    2.1199   -0.1995    2.3130 H   0  0  0  0  0  0  0  0  0  0  0  0
    4.3213    0.5578    3.1196 H   0  0  0  0  0  0  0  0  0  0  0  0
    5.1830    2.6925    2.5204 H   0  0  0  0  0  0  0  0  0  0  0  0
    5.9481    4.4079    1.7714 H   0  0  0  0  0  0  0  0  0  0  0  0
    5.2250    6.9974    0.3994 H   0  0  0  0  0  0  0  0  0  0  0  0
    7.0864    6.4386    2.8058 H   0  0  0  0  0  0  0  0  0  0  0  0
    5.4811    7.2539    2.8591 H   0  0  0  0  0  0  0  0  0  0  0  0
    6.8544    8.0244    1.9825 H   0  0  0  0  0  0  0  0  0  0  0  0
    8.2220    4.9351    1.3071 H   0  0  0  0  0  0  0  0  0  0  0  0
   -0.7914    5.0751   -3.6254 H   0  0  0  0  0  0  0  0  0  0  0  0
  1 31  1  0  0  0  0
  1 32  1  0  0  0  0
  1 33  1  0  0  0  0
  2 28  1  0  0  0  0
  2  3  1  0  0  0  0
  2  1  1  0  0  0  0
  2 34  1  6  0  0  0
  3  4  1  0  0  0  0
  3 35  1  0  0  0  0
  4  5  2  0  0  0  0
  4  6  1  0  0  0  0
  6  7  1  0  0  0  0
  6 11  2  0  0  0  0
  7  8  2  0  0  0  0
  7 36  1  0  0  0  0
  8  9  1  0  0  0  0
  8 37  1  0  0  0  0
  9 10  2  0  0  0  0
  9 38  1  0  0  0  0
 10 11  1  0  0  0  0
 10 39  1  0  0  0  0
 11 12  1  0  0  0  0
 12 13  1  0  0  0  0
 13 14  1  0  0  0  0
 14 15  1  0  0  0  0
 14 19  2  0  0  0  0
 15 16  2  0  0  0  0
 15 40  1  0  0  0  0
 16 17  1  0  0  0  0
 16 41  1  0  0  0  0
 17 18  2  0  0  0  0
 17 42  1  0  0  0  0
 18 19  1  0  0  0  0
 18 43  1  0  0  0  0
 19 20  1  0  0  0  0
 20 21  2  0  0  0  0
 20 22  1  0  0  0  0
 22 23  1  0  0  0  0
 22 44  1  0  0  0  0
 23 24  1  0  0  0  0
 23 25  1  0  0  0  0
 23 45  1  6  0  0  0
 24 46  1  0  0  0  0
 24 47  1  0  0  0  0
 24 48  1  0  0  0  0
 25 26  2  0  0  0  0
 25 27  1  0  0  0  0
 27 49  1  0  0  0  0
 28 29  2  0  0  0  0
 28 30  1  0  0  0  0
 30 50  1  0  0  0  0
M  END
>  <Line_Number>
320


> <IC50>
25900

$$$$
