155550246.0
 OpenBabel09302502343D

 58 59  0  0  1  0  0  0  0  0999 V2000
   11.5666   -4.7684    3.8090 C   0  0  0  0  0  0  0  0  0  0  0  0
   11.0936   -3.4465    3.2039 C   0  0  0  0  0  0  0  0  0  0  0  0
   10.6757   -2.4001    4.2579 C   0  0  3  0  0  0  0  0  0  0  0  0
   11.8394   -1.9796    5.1750 C   0  0  0  0  0  0  0  0  0  0  0  0
   11.3959   -1.0602    6.1380 O   0  0  0  0  0  0  0  0  0  0  0  0
   10.1486   -1.2303    3.5629 N   0  0  0  0  0  0  0  0  0  0  0  0
    8.8954   -0.7328    3.7882 C   0  0  0  0  0  0  0  0  0  0  0  0
    8.1959   -1.2541    4.6437 O   0  0  0  0  0  0  0  0  0  0  0  0
    8.3546    0.4443    3.0237 C   0  0  0  0  0  0  0  0  0  0  0  0
    8.9159    0.7902    1.7724 C   0  0  0  0  0  0  0  0  0  0  0  0
    8.4243    1.8674    1.0346 C   0  0  0  0  0  0  0  0  0  0  0  0
    7.3688    2.6287    1.5265 C   0  0  0  0  0  0  0  0  0  0  0  0
    6.7986    2.3143    2.7607 C   0  0  0  0  0  0  0  0  0  0  0  0
    7.2669    1.2278    3.5190 C   0  0  0  0  0  0  0  0  0  0  0  0
    6.4331    0.9538    5.2671 Se  0  0  0  0  0  0  0  0  0  0  0  0
    4.8532   -0.6821    4.5135 Se  0  0  0  0  0  0  0  0  0  0  0  0
    3.8967   -0.8752    6.2091 C   0  0  0  0  0  0  0  0  0  0  0  0
    3.3219    0.3228    6.6795 C   0  0  0  0  0  0  0  0  0  0  0  0
    2.5595    0.3603    7.8451 C   0  0  0  0  0  0  0  0  0  0  0  0
    2.3393   -0.8010    8.5650 C   0  0  0  0  0  0  0  0  0  0  0  0
    2.8926   -2.0013    8.1339 C   0  0  0  0  0  0  0  0  0  0  0  0
    3.6920   -2.0933    6.9603 C   0  0  0  0  0  0  0  0  0  0  0  0
    4.2349   -3.4845    6.6684 C   0  0  0  0  0  0  0  0  0  0  0  0
    3.8984   -4.3884    7.4247 O   0  0  0  0  0  0  0  0  0  0  0  0
    5.1024   -3.7927    5.6544 N   0  0  0  0  0  0  0  0  0  0  0  0
    5.6905   -5.1227    5.4918 C   0  0  3  0  0  0  0  0  0  0  0  0
    5.3382   -5.7297    4.1210 C   0  0  0  0  0  0  0  0  0  0  0  0
    3.8367   -5.9348    3.9346 C   0  0  0  0  0  0  0  0  0  0  0  0
    7.2179   -5.0171    5.6372 C   0  0  0  0  0  0  0  0  0  0  0  0
    7.5611   -4.5243    6.9049 O   0  0  0  0  0  0  0  0  0  0  0  0
   11.7793   -5.4899    2.9924 H   0  0  0  0  0  0  0  0  0  0  0  0
   10.7775   -5.1941    4.4642 H   0  0  0  0  0  0  0  0  0  0  0  0
   12.5007   -4.6343    4.3909 H   0  0  0  0  0  0  0  0  0  0  0  0
   10.2088   -3.6655    2.5673 H   0  0  0  0  0  0  0  0  0  0  0  0
   11.8955   -3.0339    2.5521 H   0  0  0  0  0  0  0  0  0  0  0  0
    9.8968   -2.8600    4.9046 H   0  0  0  0  0  0  0  0  0  0  0  0
   12.6869   -1.5536    4.5911 H   0  0  0  0  0  0  0  0  0  0  0  0
   12.2309   -2.8602    5.7229 H   0  0  0  0  0  0  0  0  0  0  0  0
   11.3645   -0.1729    5.6966 H   0  0  0  0  0  0  0  0  0  0  0  0
   10.7827   -0.7617    2.8966 H   0  0  0  0  0  0  0  0  0  0  0  0
    9.7279    0.2284    1.3340 H   0  0  0  0  0  0  0  0  0  0  0  0
    8.8636    2.1124    0.0721 H   0  0  0  0  0  0  0  0  0  0  0  0
    6.9973    3.4686    0.9497 H   0  0  0  0  0  0  0  0  0  0  0  0
    5.9897    2.9287    3.1330 H   0  0  0  0  0  0  0  0  0  0  0  0
    3.4622    1.2458    6.1336 H   0  0  0  0  0  0  0  0  0  0  0  0
    2.1286    1.2925    8.1888 H   0  0  0  0  0  0  0  0  0  0  0  0
    1.7373   -0.7762    9.4663 H   0  0  0  0  0  0  0  0  0  0  0  0
    2.6831   -2.8698    8.7474 H   0  0  0  0  0  0  0  0  0  0  0  0
    5.4215   -3.0860    4.9956 H   0  0  0  0  0  0  0  0  0  0  0  0
    5.3321   -5.8284    6.2732 H   0  0  0  0  0  0  0  0  0  0  0  0
    5.8280   -6.7255    4.0400 H   0  0  0  0  0  0  0  0  0  0  0  0
    5.7226   -5.0811    3.3049 H   0  0  0  0  0  0  0  0  0  0  0  0
    3.4313   -6.5916    4.7338 H   0  0  0  0  0  0  0  0  0  0  0  0
    3.6558   -6.4226    2.9528 H   0  0  0  0  0  0  0  0  0  0  0  0
    3.3036   -4.9616    3.9500 H   0  0  0  0  0  0  0  0  0  0  0  0
    7.6501   -4.3702    4.8390 H   0  0  0  0  0  0  0  0  0  0  0  0
    7.6760   -6.0225    5.5222 H   0  0  0  0  0  0  0  0  0  0  0  0
    7.4953   -3.5347    6.8552 H   0  0  0  0  0  0  0  0  0  0  0  0
  1  2  1  0  0  0  0
  1 31  1  0  0  0  0
  1 32  1  0  0  0  0
  1 33  1  0  0  0  0
  2  3  1  0  0  0  0
  2 34  1  0  0  0  0
  2 35  1  0  0  0  0
  3  4  1  0  0  0  0
  3  6  1  0  0  0  0
  3 36  1  0  0  0  0
  4  5  1  0  0  0  0
  4 37  1  0  0  0  0
  4 38  1  0  0  0  0
  5 39  1  0  0  0  0
  6  7  1  0  0  0  0
  6 40  1  0  0  0  0
  7  8  2  0  0  0  0
  7  9  1  0  0  0  0
  9 10  1  0  0  0  0
  9 14  2  0  0  0  0
 10 11  2  0  0  0  0
 10 41  1  0  0  0  0
 11 12  1  0  0  0  0
 11 42  1  0  0  0  0
 12 13  2  0  0  0  0
 12 43  1  0  0  0  0
 13 14  1  0  0  0  0
 13 44  1  0  0  0  0
 14 15  1  0  0  0  0
 15 16  1  0  0  0  0
 16 17  1  0  0  0  0
 17 18  1  0  0  0  0
 17 22  2  0  0  0  0
 18 19  2  0  0  0  0
 18 45  1  0  0  0  0
 19 20  1  0  0  0  0
 19 46  1  0  0  0  0
 20 21  2  0  0  0  0
 20 47  1  0  0  0  0
 21 22  1  0  0  0  0
 21 48  1  0  0  0  0
 22 23  1  0  0  0  0
 23 24  2  0  0  0  0
 23 25  1  0  0  0  0
 25 26  1  0  0  0  0
 25 49  1  0  0  0  0
 26 27  1  0  0  0  0
 26 29  1  0  0  0  0
 26 50  1  0  0  0  0
 27 28  1  0  0  0  0
 27 51  1  0  0  0  0
 27 52  1  0  0  0  0
 28 53  1  0  0  0  0
 28 54  1  0  0  0  0
 28 55  1  0  0  0  0
 29 30  1  0  0  0  0
 29 56  1  0  0  0  0
 29 57  1  0  0  0  0
 30 58  1  0  0  0  0
M  END
>  <Line_Number>
321


> <IC50>
55629

$$$$
