15785641.0
 OpenBabel09302502343D

 44 45  0  0  0  0  0  0  0  0999 V2000
    7.8530   -5.1858   -5.6499 O   0  0  0  0  0  0  0  0  0  0  0  0
    7.0535   -4.4246   -6.1705 C   0  0  0  0  0  0  0  0  0  0  0  0
    5.9296   -4.9243   -6.7292 O   0  0  0  0  0  0  0  0  0  0  0  0
    7.3289   -2.9465   -6.1866 C   0  0  0  0  0  0  0  0  0  0  0  0
    7.4335   -2.4189   -4.8384 N   0  0  0  0  0  0  0  0  0  0  0  0
    7.5751   -1.0815   -4.6177 C   0  0  0  0  0  0  0  0  0  0  0  0
    7.6011   -0.3253   -5.5778 O   0  0  0  0  0  0  0  0  0  0  0  0
    7.6935   -0.5181   -3.2314 C   0  0  0  0  0  0  0  0  0  0  0  0
    8.1896   -1.3292   -2.1859 C   0  0  0  0  0  0  0  0  0  0  0  0
    8.3568   -0.8185   -0.8989 C   0  0  0  0  0  0  0  0  0  0  0  0
    8.0327    0.5068   -0.6240 C   0  0  0  0  0  0  0  0  0  0  0  0
    7.5275    1.3276   -1.6319 C   0  0  0  0  0  0  0  0  0  0  0  0
    7.3467    0.8324   -2.9373 C   0  0  0  0  0  0  0  0  0  0  0  0
    6.6134    2.0210   -4.2932 Se  0  0  0  0  0  0  0  0  0  0  0  0
    4.6609    2.7560   -3.1097 Se  0  0  0  0  0  0  0  0  0  0  0  0
    3.5605    1.1514   -3.2473 C   0  0  0  0  0  0  0  0  0  0  0  0
    3.3752    0.5727   -4.5137 C   0  0  0  0  0  0  0  0  0  0  0  0
    2.5952   -0.5787   -4.6649 C   0  0  0  0  0  0  0  0  0  0  0  0
    1.9956   -1.1649   -3.5557 C   0  0  0  0  0  0  0  0  0  0  0  0
    2.1666   -0.6083   -2.2894 C   0  0  0  0  0  0  0  0  0  0  0  0
    2.9419    0.5593   -2.1036 C   0  0  0  0  0  0  0  0  0  0  0  0
    3.0673    1.1561   -0.7278 C   0  0  0  0  0  0  0  0  0  0  0  0
    3.3594    2.3364   -0.6131 O   0  0  0  0  0  0  0  0  0  0  0  0
    2.8790    0.4062    0.3986 N   0  0  0  0  0  0  0  0  0  0  0  0
    2.9990    0.9497    1.7412 C   0  0  0  0  0  0  0  0  0  0  0  0
    1.7565    0.6529    2.5319 C   0  0  0  0  0  0  0  0  0  0  0  0
    1.8305   -0.0297    3.5412 O   0  0  0  0  0  0  0  0  0  0  0  0
    0.5563    1.1309    2.1424 O   0  0  0  0  0  0  0  0  0  0  0  0
    5.2719   -4.3531   -7.1526 H   0  0  0  0  0  0  0  0  0  0  0  0
    6.5016   -2.4280   -6.7187 H   0  0  0  0  0  0  0  0  0  0  0  0
    8.2769   -2.7546   -6.7353 H   0  0  0  0  0  0  0  0  0  0  0  0
    7.3528   -3.0680   -4.0423 H   0  0  0  0  0  0  0  0  0  0  0  0
    8.4831   -2.3550   -2.3533 H   0  0  0  0  0  0  0  0  0  0  0  0
    8.7531   -1.4523   -0.1139 H   0  0  0  0  0  0  0  0  0  0  0  0
    8.1738    0.8985    0.3756 H   0  0  0  0  0  0  0  0  0  0  0  0
    7.2796    2.3550   -1.4035 H   0  0  0  0  0  0  0  0  0  0  0  0
    3.8313    1.0115   -5.3900 H   0  0  0  0  0  0  0  0  0  0  0  0
    2.4511   -1.0168   -5.6444 H   0  0  0  0  0  0  0  0  0  0  0  0
    1.3827   -2.0520   -3.6752 H   0  0  0  0  0  0  0  0  0  0  0  0
    1.6542   -1.0895   -1.4686 H   0  0  0  0  0  0  0  0  0  0  0  0
    2.6961   -0.6030    0.3257 H   0  0  0  0  0  0  0  0  0  0  0  0
    3.1650    2.0486    1.7369 H   0  0  0  0  0  0  0  0  0  0  0  0
    3.8747    0.4763    2.2353 H   0  0  0  0  0  0  0  0  0  0  0  0
    0.4603    1.6746    1.3486 H   0  0  0  0  0  0  0  0  0  0  0  0
  1  2  2  0  0  0  0
  2  3  1  0  0  0  0
  2  4  1  0  0  0  0
  3 29  1  0  0  0  0
  4  5  1  0  0  0  0
  4 30  1  0  0  0  0
  4 31  1  0  0  0  0
  5  6  1  0  0  0  0
  5 32  1  0  0  0  0
  6  7  2  0  0  0  0
  6  8  1  0  0  0  0
  8  9  1  0  0  0  0
  8 13  2  0  0  0  0
  9 10  2  0  0  0  0
  9 33  1  0  0  0  0
 10 11  1  0  0  0  0
 10 34  1  0  0  0  0
 11 12  2  0  0  0  0
 11 35  1  0  0  0  0
 12 13  1  0  0  0  0
 12 36  1  0  0  0  0
 13 14  1  0  0  0  0
 14 15  1  0  0  0  0
 15 16  1  0  0  0  0
 16 17  1  0  0  0  0
 16 21  2  0  0  0  0
 17 18  2  0  0  0  0
 17 37  1  0  0  0  0
 18 19  1  0  0  0  0
 18 38  1  0  0  0  0
 19 20  2  0  0  0  0
 19 39  1  0  0  0  0
 20 21  1  0  0  0  0
 20 40  1  0  0  0  0
 21 22  1  0  0  0  0
 22 23  2  0  0  0  0
 22 24  1  0  0  0  0
 24 25  1  0  0  0  0
 24 41  1  0  0  0  0
 25 26  1  0  0  0  0
 25 42  1  0  0  0  0
 25 43  1  0  0  0  0
 26 27  2  0  0  0  0
 26 28  1  0  0  0  0
 28 44  1  0  0  0  0
M  END
>  <Line_Number>
322


> <IC50>
121500

$$$$
