5280343.0
 OpenBabel09302502343D

 32 34  0  0  0  0  0  0  0  0999 V2000
    2.0203   -1.7499    0.1107 O   0  0  0  0  0  0  0  0  0  0  0  0
    1.5295   -0.6264    0.0555 C   0  0  0  0  0  0  0  0  0  0  0  0
    2.4578    0.5269   -0.0093 C   0  0  0  0  0  0  0  0  0  0  0  0
    3.8116    0.2427   -0.0549 O   0  0  0  0  0  0  0  0  0  0  0  0
    1.9525    1.7689   -0.0355 C   0  0  0  0  0  0  0  0  0  0  0  0
    2.8315    2.9400   -0.1653 C   0  0  0  0  0  0  0  0  0  0  0  0
    3.3660    3.5728    0.9697 C   0  0  0  0  0  0  0  0  0  0  0  0
    4.2660    4.6372    0.8354 C   0  0  0  0  0  0  0  0  0  0  0  0
    4.6269    5.0619   -0.4374 C   0  0  0  0  0  0  0  0  0  0  0  0
    5.5174    6.0809   -0.6368 O   0  0  0  0  0  0  0  0  0  0  0  0
    4.0912    4.4434   -1.5641 C   0  0  0  0  0  0  0  0  0  0  0  0
    4.4619    4.8595   -2.8114 O   0  0  0  0  0  0  0  0  0  0  0  0
    3.1950    3.3910   -1.4414 C   0  0  0  0  0  0  0  0  0  0  0  0
    0.6040    2.0702    0.0169 O   0  0  0  0  0  0  0  0  0  0  0  0
   -0.2955    1.0280    0.0273 C   0  0  0  0  0  0  0  0  0  0  0  0
   -1.6483    1.3829    0.0181 C   0  0  0  0  0  0  0  0  0  0  0  0
   -2.6138    0.3814    0.0005 C   0  0  0  0  0  0  0  0  0  0  0  0
   -3.9454    0.6732   -0.0179 O   0  0  0  0  0  0  0  0  0  0  0  0
   -2.2536   -0.9611   -0.0047 C   0  0  0  0  0  0  0  0  0  0  0  0
   -0.9031   -1.3125    0.0136 C   0  0  0  0  0  0  0  0  0  0  0  0
   -0.5671   -2.6356    0.0001 O   0  0  0  0  0  0  0  0  0  0  0  0
    0.0849   -0.3188    0.0343 C   0  0  0  0  0  0  0  0  0  0  0  0
    3.8550   -0.7381   -0.0366 H   0  0  0  0  0  0  0  0  0  0  0  0
    3.1003    3.2220    1.9650 H   0  0  0  0  0  0  0  0  0  0  0  0
    4.6785    5.1016    1.7253 H   0  0  0  0  0  0  0  0  0  0  0  0
    5.8229    6.3906    0.2330 H   0  0  0  0  0  0  0  0  0  0  0  0
    5.1194    5.5646   -2.6481 H   0  0  0  0  0  0  0  0  0  0  0  0
    2.8076    2.9111   -2.3352 H   0  0  0  0  0  0  0  0  0  0  0  0
   -1.9265    2.4321    0.0194 H   0  0  0  0  0  0  0  0  0  0  0  0
   -4.0621    1.6382   -0.0347 H   0  0  0  0  0  0  0  0  0  0  0  0
   -3.0336   -1.7170   -0.0263 H   0  0  0  0  0  0  0  0  0  0  0  0
   -1.3663   -3.1861   -0.0262 H   0  0  0  0  0  0  0  0  0  0  0  0
  1  2  2  0  0  0  0
  2  3  1  0  0  0  0
  2 22  1  0  0  0  0
  3  4  1  0  0  0  0
  3  5  2  0  0  0  0
  4 23  1  0  0  0  0
  5  6  1  0  0  0  0
  5 14  1  0  0  0  0
  6  7  1  0  0  0  0
  6 13  2  0  0  0  0
  7  8  2  0  0  0  0
  7 24  1  0  0  0  0
  8  9  1  0  0  0  0
  8 25  1  0  0  0  0
  9 10  1  0  0  0  0
  9 11  2  0  0  0  0
 10 26  1  0  0  0  0
 11 12  1  0  0  0  0
 11 13  1  0  0  0  0
 12 27  1  0  0  0  0
 13 28  1  0  0  0  0
 14 15  1  0  0  0  0
 15 16  1  0  0  0  0
 15 22  2  0  0  0  0
 16 17  2  0  0  0  0
 16 29  1  0  0  0  0
 17 18  1  0  0  0  0
 17 19  1  0  0  0  0
 18 30  1  0  0  0  0
 19 20  2  0  0  0  0
 19 31  1  0  0  0  0
 20 21  1  0  0  0  0
 20 22  1  0  0  0  0
 21 32  1  0  0  0  0
M  END
>  <Line_Number>
323


> <IC50>
7170

$$$$
