132601482.0
 OpenBabel09302502343D

 38 39  0  0  1  0  0  0  0  0999 V2000
    4.5312   -1.7160   -0.2209 O   0  0  0  0  0  0  0  0  0  0  0  0
    4.1222   -0.7033   -0.7815 C   0  0  0  0  0  0  0  0  0  0  0  0
    2.7173   -0.5538   -1.3106 C   0  0  0  0  0  0  0  0  0  0  0  0
    2.0898   -1.9030   -1.6302 C   0  0  3  0  0  0  0  0  0  0  0  0
    0.7575   -1.6583   -2.1089 O   0  0  0  0  0  0  0  0  0  0  0  0
    2.7880   -2.8573   -2.5890 C   0  0  0  0  0  0  0  0  0  0  0  0
    2.5137   -4.2336   -2.3779 C   0  0  0  0  0  0  0  0  0  0  0  0
    3.0819   -5.2235   -3.1727 C   0  0  0  0  0  0  0  0  0  0  0  0
    2.7603   -6.8815   -2.8584 Cl  0  0  0  0  0  0  0  0  0  0  0  0
    3.8998   -4.8719   -4.2267 C   0  0  0  0  0  0  0  0  0  0  0  0
    4.1719   -3.5265   -4.4680 C   0  0  0  0  0  0  0  0  0  0  0  0
    3.6594   -2.5026   -3.6388 C   0  0  0  0  0  0  0  0  0  0  0  0
    4.0045   -1.1728   -3.8203 O   0  0  0  0  0  0  0  0  0  0  0  0
    5.2088   -0.9982   -4.5846 C   0  0  0  0  0  0  0  0  0  0  0  0
    5.8220    0.3848   -4.6017 C   0  0  0  0  0  0  0  0  0  0  0  0
    7.2255    0.4887   -4.5487 C   0  0  0  0  0  0  0  0  0  0  0  0
    7.8679    1.7035   -4.7831 C   0  0  0  0  0  0  0  0  0  0  0  0
    7.1157    2.8357   -5.0751 C   0  0  0  0  0  0  0  0  0  0  0  0
    5.7225    2.7524   -5.1136 C   0  0  0  0  0  0  0  0  0  0  0  0
    5.0746    1.5336   -4.8776 C   0  0  0  0  0  0  0  0  0  0  0  0
    4.8894    0.4167   -1.0070 N   0  0  0  0  0  0  0  0  0  0  0  0
    6.1885    0.4049   -0.4613 O   0  0  0  0  0  0  0  0  0  0  0  0
    2.6858    0.1131   -2.1788 H   0  0  0  0  0  0  0  0  0  0  0  0
    2.1197   -0.0548   -0.5348 H   0  0  0  0  0  0  0  0  0  0  0  0
    1.9683   -2.4267   -0.6711 H   0  0  0  0  0  0  0  0  0  0  0  0
    0.5052   -2.3957   -2.6904 H   0  0  0  0  0  0  0  0  0  0  0  0
    1.8627   -4.5344   -1.5567 H   0  0  0  0  0  0  0  0  0  0  0  0
    4.3526   -5.6305   -4.8638 H   0  0  0  0  0  0  0  0  0  0  0  0
    4.8108   -3.3143   -5.3193 H   0  0  0  0  0  0  0  0  0  0  0  0
    5.0030   -1.2393   -5.6348 H   0  0  0  0  0  0  0  0  0  0  0  0
    5.9711   -1.6806   -4.1872 H   0  0  0  0  0  0  0  0  0  0  0  0
    7.8363   -0.3944   -4.3687 H   0  0  0  0  0  0  0  0  0  0  0  0
    8.9536    1.7551   -4.7698 H   0  0  0  0  0  0  0  0  0  0  0  0
    7.6159    3.7760   -5.2938 H   0  0  0  0  0  0  0  0  0  0  0  0
    5.1421    3.6372   -5.3634 H   0  0  0  0  0  0  0  0  0  0  0  0
    3.9917    1.4804   -4.9617 H   0  0  0  0  0  0  0  0  0  0  0  0
    4.4773    1.3286   -1.1713 H   0  0  0  0  0  0  0  0  0  0  0  0
    6.6398   -0.2307   -1.0496 H   0  0  0  0  0  0  0  0  0  0  0  0
  1  2  2  0  0  0  0
  2  3  1  0  0  0  0
  2 21  1  0  0  0  0
  3  4  1  0  0  0  0
  3 23  1  0  0  0  0
  3 24  1  0  0  0  0
  4  5  1  0  0  0  0
  4  6  1  0  0  0  0
  4 25  1  0  0  0  0
  5 26  1  0  0  0  0
  6  7  1  0  0  0  0
  6 12  2  0  0  0  0
  7  8  2  0  0  0  0
  7 27  1  0  0  0  0
  8  9  1  0  0  0  0
  8 10  1  0  0  0  0
 10 11  2  0  0  0  0
 10 28  1  0  0  0  0
 11 12  1  0  0  0  0
 11 29  1  0  0  0  0
 12 13  1  0  0  0  0
 13 14  1  0  0  0  0
 14 15  1  0  0  0  0
 14 30  1  0  0  0  0
 14 31  1  0  0  0  0
 15 16  1  0  0  0  0
 15 20  2  0  0  0  0
 16 17  2  0  0  0  0
 16 32  1  0  0  0  0
 17 18  1  0  0  0  0
 17 33  1  0  0  0  0
 18 19  2  0  0  0  0
 18 34  1  0  0  0  0
 19 20  1  0  0  0  0
 19 35  1  0  0  0  0
 20 36  1  0  0  0  0
 21 22  1  0  0  0  0
 21 37  1  0  0  0  0
 22 38  1  0  0  0  0
M  END
>  <Line_Number>
324


> <IC50>
150

$$$$
