145991509.0
 OpenBabel09302502343D

 42 44  0  0  0  0  0  0  0  0999 V2000
    7.0695    0.7886   -1.8862 C   0  0  0  0  0  0  0  0  0  0  0  0
    5.9420    0.6377   -0.9011 C   0  0  0  0  0  0  0  0  0  0  0  0
    4.9880    1.7910   -0.7628 C   0  0  0  0  0  0  0  0  0  0  0  0
    5.7982   -0.5113   -0.2114 C   0  0  0  0  0  0  0  0  0  0  0  0
    4.7236   -0.8004    0.7979 C   0  0  0  0  0  0  0  0  0  0  0  0
    5.1760   -1.7447    1.8174 N   0  0  0  0  0  0  0  0  0  0  0  0
    5.7912   -1.4158    3.0111 C   0  0  0  0  0  0  0  0  0  0  0  0
    6.1067   -0.1672    3.3565 O   0  0  0  0  0  0  0  0  0  0  0  0
    5.9521   -2.5973    3.7093 C   0  0  0  0  0  0  0  0  0  0  0  0
    6.4766   -2.7794    4.9995 N   0  0  0  0  0  0  0  0  0  0  0  0
    7.4335   -2.0233    5.2674 N   0  0  0  0  0  0  0  0  0  0  0  0
    7.9135   -2.2120    6.5811 C   0  0  0  0  0  0  0  0  0  0  0  0
    7.9623   -3.4645    7.2118 C   0  0  0  0  0  0  0  0  0  0  0  0
    8.4746   -3.5981    8.5074 C   0  0  0  0  0  0  0  0  0  0  0  0
    8.9581   -2.4815    9.1836 C   0  0  0  0  0  0  0  0  0  0  0  0
    8.9296   -1.2312    8.5673 C   0  0  0  0  0  0  0  0  0  0  0  0
    8.4129   -1.1014    7.2738 C   0  0  0  0  0  0  0  0  0  0  0  0
    5.4319   -3.6688    2.9336 C   0  0  0  0  0  0  0  0  0  0  0  0
    5.3090   -5.0616    3.1300 C   0  0  0  0  0  0  0  0  0  0  0  0
    4.7268   -5.8526    2.1333 C   0  0  0  0  0  0  0  0  0  0  0  0
    4.2763   -5.2793    0.9493 C   0  0  0  0  0  0  0  0  0  0  0  0
    4.3899   -3.9047    0.7294 C   0  0  0  0  0  0  0  0  0  0  0  0
    4.9632   -3.1143    1.7404 C   0  0  0  0  0  0  0  0  0  0  0  0
    7.0273    1.7469   -2.4125 H   0  0  0  0  0  0  0  0  0  0  0  0
    7.0275   -0.0010   -2.6440 H   0  0  0  0  0  0  0  0  0  0  0  0
    8.0355    0.7371   -1.3729 H   0  0  0  0  0  0  0  0  0  0  0  0
    5.2360    2.6114   -1.4425 H   0  0  0  0  0  0  0  0  0  0  0  0
    5.0111    2.1911    0.2557 H   0  0  0  0  0  0  0  0  0  0  0  0
    3.9667    1.4726   -0.9993 H   0  0  0  0  0  0  0  0  0  0  0  0
    6.5124   -1.3176   -0.3916 H   0  0  0  0  0  0  0  0  0  0  0  0
    3.8484   -1.2325    0.3026 H   0  0  0  0  0  0  0  0  0  0  0  0
    4.3843    0.1004    1.3190 H   0  0  0  0  0  0  0  0  0  0  0  0
    6.0859    0.4147    2.5809 H   0  0  0  0  0  0  0  0  0  0  0  0
    7.6007   -4.3477    6.6933 H   0  0  0  0  0  0  0  0  0  0  0  0
    8.4984   -4.5758    8.9811 H   0  0  0  0  0  0  0  0  0  0  0  0
    9.3593   -2.5839   10.1885 H   0  0  0  0  0  0  0  0  0  0  0  0
    9.3110   -0.3573    9.0889 H   0  0  0  0  0  0  0  0  0  0  0  0
    8.3947   -0.1247    6.7972 H   0  0  0  0  0  0  0  0  0  0  0  0
    5.6633   -5.5163    4.0503 H   0  0  0  0  0  0  0  0  0  0  0  0
    4.6271   -6.9247    2.2875 H   0  0  0  0  0  0  0  0  0  0  0  0
    3.8278   -5.9080    0.1828 H   0  0  0  0  0  0  0  0  0  0  0  0
    4.0348   -3.4741   -0.2015 H   0  0  0  0  0  0  0  0  0  0  0  0
  1  2  1  0  0  0  0
  1 24  1  0  0  0  0
  1 25  1  0  0  0  0
  1 26  1  0  0  0  0
  2  3  1  0  0  0  0
  2  4  2  0  0  0  0
  3 27  1  0  0  0  0
  3 28  1  0  0  0  0
  3 29  1  0  0  0  0
  4  5  1  0  0  0  0
  4 30  1  0  0  0  0
  5  6  1  0  0  0  0
  5 31  1  0  0  0  0
  5 32  1  0  0  0  0
  6  7  1  0  0  0  0
  6 23  1  0  0  0  0
  7  8  1  0  0  0  0
  7  9  2  0  0  0  0
  8 33  1  0  0  0  0
  9 10  1  0  0  0  0
  9 18  1  0  0  0  0
 10 11  2  3  0  0  0
 11 12  1  0  0  0  0
 12 13  1  0  0  0  0
 12 17  2  0  0  0  0
 13 14  2  0  0  0  0
 13 34  1  0  0  0  0
 14 15  1  0  0  0  0
 14 35  1  0  0  0  0
 15 16  2  0  0  0  0
 15 36  1  0  0  0  0
 16 17  1  0  0  0  0
 16 37  1  0  0  0  0
 17 38  1  0  0  0  0
 18 19  1  0  0  0  0
 18 23  2  0  0  0  0
 19 20  2  0  0  0  0
 19 39  1  0  0  0  0
 20 21  1  0  0  0  0
 20 40  1  0  0  0  0
 21 22  2  0  0  0  0
 21 41  1  0  0  0  0
 22 23  1  0  0  0  0
 22 42  1  0  0  0  0
M  END
>  <Line_Number>
325


> <IC50>
200000

$$$$
