3657.0
 OpenBabel09302502343D

  9  8  0  0  0  0  0  0  0  0999 V2000
    1.1802    0.0552    0.0771 N   0  0  0  0  0  0  0  0  0  0  0  0
    2.5322    0.0844    0.0443 C   0  0  0  0  0  0  0  0  0  0  0  0
    3.1515    0.7971   -0.7370 O   0  0  0  0  0  0  0  0  0  0  0  0
    3.1355   -0.7376    0.9440 N   0  0  0  0  0  0  0  0  0  0  0  0
    4.5462   -0.7532    0.9596 O   0  0  0  0  0  0  0  0  0  0  0  0
    0.6840    0.6487   -0.5740 H   0  0  0  0  0  0  0  0  0  0  0  0
    0.6543   -0.5242    0.7109 H   0  0  0  0  0  0  0  0  0  0  0  0
    2.6549   -1.3348    1.6011 H   0  0  0  0  0  0  0  0  0  0  0  0
    4.7650   -0.1080    0.2515 H   0  0  0  0  0  0  0  0  0  0  0  0
  1  2  1  0  0  0  0
  1  6  1  0  0  0  0
  1  7  1  0  0  0  0
  2  3  2  0  0  0  0
  2  4  1  0  0  0  0
  4  5  1  0  0  0  0
  4  8  1  0  0  0  0
  5  9  1  0  0  0  0
M  END
>  <Line_Number>
326


> <IC50>
88750

$$$$
