13713086.0
 OpenBabel09302502343D

 24 25  0  0  0  0  0  0  0  0999 V2000
    5.0417    2.0356   -1.3931 O   0  0  0  0  0  0  0  0  0  0  0  0
    4.8807    0.8252   -1.3781 C   0  0  0  0  0  0  0  0  0  0  0  0
    4.0834    0.2551   -2.3057 O   0  0  0  0  0  0  0  0  0  0  0  0
    5.5846   -0.0070   -0.3388 C   0  0  0  0  0  0  0  0  0  0  0  0
    4.5841   -0.7392    0.5653 C   0  0  0  0  0  0  0  0  0  0  0  0
    5.2865   -1.4885    1.6132 N   0  0  0  0  0  0  0  0  0  0  0  0
    6.3278   -0.6663    2.8349 Se  0  0  0  0  0  0  0  0  0  0  0  0
    6.6059   -2.3135    3.5341 C   0  0  0  0  0  0  0  0  0  0  0  0
    7.4039   -2.5932    4.6445 C   0  0  0  0  0  0  0  0  0  0  0  0
    7.5206   -3.9212    5.0786 C   0  0  0  0  0  0  0  0  0  0  0  0
    6.8416   -4.9487    4.4012 C   0  0  0  0  0  0  0  0  0  0  0  0
    6.0441   -4.6530    3.2842 C   0  0  0  0  0  0  0  0  0  0  0  0
    5.9395   -3.3204    2.8625 C   0  0  0  0  0  0  0  0  0  0  0  0
    5.2085   -2.8424    1.7945 C   0  0  0  0  0  0  0  0  0  0  0  0
    4.5426   -3.5653    1.0704 O   0  0  0  0  0  0  0  0  0  0  0  0
    3.9461   -0.7012   -2.3423 H   0  0  0  0  0  0  0  0  0  0  0  0
    6.2173    0.6621    0.2832 H   0  0  0  0  0  0  0  0  0  0  0  0
    6.2449   -0.7442   -0.8438 H   0  0  0  0  0  0  0  0  0  0  0  0
    3.9609   -1.4209   -0.0528 H   0  0  0  0  0  0  0  0  0  0  0  0
    3.9089   -0.0012    1.0497 H   0  0  0  0  0  0  0  0  0  0  0  0
    7.9238   -1.7985    5.1639 H   0  0  0  0  0  0  0  0  0  0  0  0
    8.1347   -4.1541    5.9389 H   0  0  0  0  0  0  0  0  0  0  0  0
    6.9349   -5.9714    4.7431 H   0  0  0  0  0  0  0  0  0  0  0  0
    5.5227   -5.4469    2.7644 H   0  0  0  0  0  0  0  0  0  0  0  0
  1  2  2  0  0  0  0
  2  3  1  0  0  0  0
  2  4  1  0  0  0  0
  3 16  1  0  0  0  0
  4  5  1  0  0  0  0
  4 17  1  0  0  0  0
  4 18  1  0  0  0  0
  5  6  1  0  0  0  0
  5 19  1  0  0  0  0
  5 20  1  0  0  0  0
  6  7  1  0  0  0  0
  6 14  1  0  0  0  0
  7  8  1  0  0  0  0
  8  9  1  0  0  0  0
  8 13  2  0  0  0  0
  9 10  2  0  0  0  0
  9 21  1  0  0  0  0
 10 11  1  0  0  0  0
 10 22  1  0  0  0  0
 11 12  2  0  0  0  0
 11 23  1  0  0  0  0
 12 13  1  0  0  0  0
 12 24  1  0  0  0  0
 13 14  1  0  0  0  0
 14 15  2  0  0  0  0
M  END
>  <Line_Number>
327


> <IC50>
19605

$$$$
