23012.0
 OpenBabel09302502343D

 30 31  0  0  0  0  0  0  0  0999 V2000
    4.7905   -1.2748   -0.4364 O   0  0  0  0  0  0  0  0  0  0  0  0
    4.0350   -1.1694    0.5146 C   0  0  0  0  0  0  0  0  0  0  0  0
    3.3550   -2.2699    0.9096 O   0  0  0  0  0  0  0  0  0  0  0  0
    3.8775    0.1452    1.2110 C   0  0  0  0  0  0  0  0  0  0  0  0
    3.3662    0.1623    2.5299 C   0  0  0  0  0  0  0  0  0  0  0  0
    3.2277    1.3575    3.2335 C   0  0  0  0  0  0  0  0  0  0  0  0
    3.5852    2.5635    2.6365 C   0  0  0  0  0  0  0  0  0  0  0  0
    4.0870    2.5755    1.3332 C   0  0  0  0  0  0  0  0  0  0  0  0
    4.2441    1.3854    0.6045 C   0  0  0  0  0  0  0  0  0  0  0  0
    4.9743    1.5513   -1.2023 Se  0  0  0  0  0  0  0  0  0  0  0  0
    2.8698    1.9269   -2.3057 Se  0  0  0  0  0  0  0  0  0  0  0  0
    3.5850    1.9685   -4.1326 C   0  0  0  0  0  0  0  0  0  0  0  0
    4.2941    0.8303   -4.5495 C   0  0  0  0  0  0  0  0  0  0  0  0
    4.8304    0.7440   -5.8344 C   0  0  0  0  0  0  0  0  0  0  0  0
    4.6639    1.7912   -6.7299 C   0  0  0  0  0  0  0  0  0  0  0  0
    3.9550    2.9284   -6.3503 C   0  0  0  0  0  0  0  0  0  0  0  0
    3.3957    3.0531   -5.0541 C   0  0  0  0  0  0  0  0  0  0  0  0
    2.6248    4.2925   -4.7035 C   0  0  0  0  0  0  0  0  0  0  0  0
    2.1659    4.4335   -3.5816 O   0  0  0  0  0  0  0  0  0  0  0  0
    2.3892    5.2915   -5.5948 O   0  0  0  0  0  0  0  0  0  0  0  0
    2.6423   -2.2517    1.5618 H   0  0  0  0  0  0  0  0  0  0  0  0
    3.0939   -0.7481    3.0466 H   0  0  0  0  0  0  0  0  0  0  0  0
    2.8476    1.3473    4.2486 H   0  0  0  0  0  0  0  0  0  0  0  0
    3.4767    3.4865    3.1894 H   0  0  0  0  0  0  0  0  0  0  0  0
    4.3618    3.5224    0.8870 H   0  0  0  0  0  0  0  0  0  0  0  0
    4.4316   -0.0014   -3.8721 H   0  0  0  0  0  0  0  0  0  0  0  0
    5.3762   -0.1400   -6.1402 H   0  0  0  0  0  0  0  0  0  0  0  0
    5.0805    1.7237   -7.7290 H   0  0  0  0  0  0  0  0  0  0  0  0
    3.8614    3.6991   -7.0994 H   0  0  0  0  0  0  0  0  0  0  0  0
    2.6664    5.3021   -6.5165 H   0  0  0  0  0  0  0  0  0  0  0  0
  1  2  2  0  0  0  0
  2  3  1  0  0  0  0
  2  4  1  0  0  0  0
  3 21  1  0  0  0  0
  4  5  1  0  0  0  0
  4  9  2  0  0  0  0
  5  6  2  0  0  0  0
  5 22  1  0  0  0  0
  6  7  1  0  0  0  0
  6 23  1  0  0  0  0
  7  8  2  0  0  0  0
  7 24  1  0  0  0  0
  8  9  1  0  0  0  0
  8 25  1  0  0  0  0
  9 10  1  0  0  0  0
 10 11  1  0  0  0  0
 11 12  1  0  0  0  0
 12 13  1  0  0  0  0
 12 17  2  0  0  0  0
 13 14  2  0  0  0  0
 13 26  1  0  0  0  0
 14 15  1  0  0  0  0
 14 27  1  0  0  0  0
 15 16  2  0  0  0  0
 15 28  1  0  0  0  0
 16 17  1  0  0  0  0
 16 29  1  0  0  0  0
 17 18  1  0  0  0  0
 18 19  2  0  0  0  0
 18 20  1  0  0  0  0
 20 30  1  0  0  0  0
M  END
>  <Line_Number>
328


> <IC50>
556500

$$$$
