168476030.0
 OpenBabel09302502343D

 28 28  0  0  1  0  0  0  0  0999 V2000
    1.3820    0.1580    0.9534 O   0  0  0  0  0  0  0  0  0  0  0  0
    2.1485    0.0187    0.0072 C   0  0  0  0  0  0  0  0  0  0  0  0
    2.3256   -1.1967   -0.5726 O   0  0  0  0  0  0  0  0  0  0  0  0
    3.0003    1.1240   -0.6017 C   0  0  3  0  0  0  0  0  0  0  0  0
    2.6803    2.4588    0.0961 C   0  0  0  0  0  0  0  0  0  0  0  0
    1.2469    3.3265   -0.4771 P   0  0  0  0  0  0  0  0  0  0  0  0
    1.0701    4.7269    0.0044 O   0  0  0  0  0  0  0  0  0  0  0  0
    1.4308    3.3263   -2.0720 O   0  0  0  0  0  0  0  0  0  0  0  0
   -0.0775    2.4561   -0.2956 O   0  0  0  0  0  0  0  0  0  0  0  0
    4.5174    0.8770   -0.5537 C   0  0  0  0  0  0  0  0  0  0  0  0
    5.1106   -0.1495    0.2064 C   0  0  0  0  0  0  0  0  0  0  0  0
    6.5050   -0.2966    0.2505 C   0  0  0  0  0  0  0  0  0  0  0  0
    7.3144    0.5962   -0.4322 C   0  0  0  0  0  0  0  0  0  0  0  0
    8.6786    0.5243   -0.3824 O   0  0  0  0  0  0  0  0  0  0  0  0
    6.7467    1.6142   -1.1848 C   0  0  0  0  0  0  0  0  0  0  0  0
    7.5455    2.5120   -1.8325 O   0  0  0  0  0  0  0  0  0  0  0  0
    5.3659    1.7502   -1.2689 C   0  0  0  0  0  0  0  0  0  0  0  0
    3.0043   -1.1973   -1.2764 H   0  0  0  0  0  0  0  0  0  0  0  0
    2.7057    1.1761   -1.6558 H   0  0  0  0  0  0  0  0  0  0  0  0
    3.4874    3.1785   -0.0877 H   0  0  0  0  0  0  0  0  0  0  0  0
    2.6360    2.3394    1.1844 H   0  0  0  0  0  0  0  0  0  0  0  0
    1.2736    4.2188   -2.4372 H   0  0  0  0  0  0  0  0  0  0  0  0
   -0.8988    2.9757   -0.3884 H   0  0  0  0  0  0  0  0  0  0  0  0
    4.5121   -0.8466    0.7875 H   0  0  0  0  0  0  0  0  0  0  0  0
    6.9304   -1.1056    0.8515 H   0  0  0  0  0  0  0  0  0  0  0  0
    8.9233   -0.1925    0.2281 H   0  0  0  0  0  0  0  0  0  0  0  0
    8.4564    2.2445   -1.5954 H   0  0  0  0  0  0  0  0  0  0  0  0
    4.9619    2.5644   -1.8671 H   0  0  0  0  0  0  0  0  0  0  0  0
  1  2  2  0  0  0  0
  2  3  1  0  0  0  0
  2  4  1  0  0  0  0
  3 18  1  0  0  0  0
  4  5  1  0  0  0  0
  4 10  1  0  0  0  0
  4 19  1  0  0  0  0
  5  6  1  0  0  0  0
  5 20  1  0  0  0  0
  5 21  1  0  0  0  0
  6  7  2  0  0  0  0
  6  8  1  0  0  0  0
  6  9  1  0  0  0  0
  8 22  1  0  0  0  0
  9 23  1  0  0  0  0
 10 11  1  0  0  0  0
 10 17  2  0  0  0  0
 11 12  2  0  0  0  0
 11 24  1  0  0  0  0
 12 13  1  0  0  0  0
 12 25  1  0  0  0  0
 13 14  1  0  0  0  0
 13 15  2  0  0  0  0
 14 26  1  0  0  0  0
 15 16  1  0  0  0  0
 15 17  1  0  0  0  0
 16 27  1  0  0  0  0
 17 28  1  0  0  0  0
M  END
>  <Line_Number>
329


> <IC50>
1555

$$$$
