3584988.0
 OpenBabel09302502333D

 36 37  0  0  1  0  0  0  0  0999 V2000
    2.9146    1.4188    0.9286 C   0  0  0  0  0  0  0  0  0  0  0  0
    2.3566    0.6231   -0.1103 O   0  0  0  0  0  0  0  0  0  0  0  0
    3.1463    0.3921   -1.2030 C   0  0  0  0  0  0  0  0  0  0  0  0
    4.4666    0.8066   -1.3571 C   0  0  0  0  0  0  0  0  0  0  0  0
    5.1621    0.5076   -2.5336 C   0  0  0  0  0  0  0  0  0  0  0  0
    4.5468   -0.1798   -3.5923 C   0  0  0  0  0  0  0  0  0  0  0  0
    5.3120   -0.4353   -4.8857 C   0  0  3  0  0  0  0  0  0  0  0  0
    5.4521   -1.9435   -5.1380 C   0  0  0  0  0  0  0  0  0  0  0  0
    4.6819    0.2646   -6.1050 C   0  0  0  0  0  0  0  0  0  0  0  0
    4.2801   -0.3654   -7.0855 O   0  0  0  0  0  0  0  0  0  0  0  0
    4.5032    1.7553   -6.1157 C   0  0  0  0  0  0  0  0  0  0  0  0
    3.4451    2.2697   -6.8876 C   0  0  0  0  0  0  0  0  0  0  0  0
    3.1684    3.6416   -6.9055 C   0  0  0  0  0  0  0  0  0  0  0  0
    3.9482    4.5014   -6.1427 C   0  0  0  0  0  0  0  0  0  0  0  0
    3.7100    5.8416   -6.1043 O   0  0  0  0  0  0  0  0  0  0  0  0
    5.0213    4.0183   -5.4036 C   0  0  0  0  0  0  0  0  0  0  0  0
    5.3092    2.6533   -5.4087 C   0  0  0  0  0  0  0  0  0  0  0  0
    6.4342    2.2354   -4.7556 O   0  0  0  0  0  0  0  0  0  0  0  0
    3.2267   -0.6110   -3.4180 C   0  0  0  0  0  0  0  0  0  0  0  0
    2.5390   -0.3314   -2.2311 C   0  0  0  0  0  0  0  0  0  0  0  0
    2.1597    1.5243    1.7143 H   0  0  0  0  0  0  0  0  0  0  0  0
    3.1630    2.4232    0.5691 H   0  0  0  0  0  0  0  0  0  0  0  0
    3.7892    0.9311    1.3730 H   0  0  0  0  0  0  0  0  0  0  0  0
    4.9878    1.3603   -0.5842 H   0  0  0  0  0  0  0  0  0  0  0  0
    6.1974    0.8326   -2.6208 H   0  0  0  0  0  0  0  0  0  0  0  0
    6.3419   -0.0768   -4.7893 H   0  0  0  0  0  0  0  0  0  0  0  0
    4.5015   -2.4041   -5.4275 H   0  0  0  0  0  0  0  0  0  0  0  0
    5.8230   -2.4623   -4.2472 H   0  0  0  0  0  0  0  0  0  0  0  0
    6.1630   -2.1249   -5.9523 H   0  0  0  0  0  0  0  0  0  0  0  0
    2.8262    1.5984   -7.4821 H   0  0  0  0  0  0  0  0  0  0  0  0
    2.3464    4.0109   -7.5110 H   0  0  0  0  0  0  0  0  0  0  0  0
    2.9299    6.0384   -6.6490 H   0  0  0  0  0  0  0  0  0  0  0  0
    5.6255    4.7240   -4.8376 H   0  0  0  0  0  0  0  0  0  0  0  0
    6.7859    2.9690   -4.2272 H   0  0  0  0  0  0  0  0  0  0  0  0
    2.7190   -1.1700   -4.2014 H   0  0  0  0  0  0  0  0  0  0  0  0
    1.5154   -0.6780   -2.1106 H   0  0  0  0  0  0  0  0  0  0  0  0
  1  2  1  0  0  0  0
  1 21  1  0  0  0  0
  1 22  1  0  0  0  0
  1 23  1  0  0  0  0
  2  3  1  0  0  0  0
  3  4  1  0  0  0  0
  3 20  2  0  0  0  0
  4  5  2  0  0  0  0
  4 24  1  0  0  0  0
  5  6  1  0  0  0  0
  5 25  1  0  0  0  0
  6  7  1  0  0  0  0
  6 19  2  0  0  0  0
  7  8  1  0  0  0  0
  7  9  1  0  0  0  0
  7 26  1  0  0  0  0
  8 27  1  0  0  0  0
  8 28  1  0  0  0  0
  8 29  1  0  0  0  0
  9 10  2  0  0  0  0
  9 11  1  0  0  0  0
 11 12  1  0  0  0  0
 11 17  2  0  0  0  0
 12 13  2  0  0  0  0
 12 30  1  0  0  0  0
 13 14  1  0  0  0  0
 13 31  1  0  0  0  0
 14 15  1  0  0  0  0
 14 16  2  0  0  0  0
 15 32  1  0  0  0  0
 16 17  1  0  0  0  0
 16 33  1  0  0  0  0
 17 18  1  0  0  0  0
 18 34  1  0  0  0  0
 19 20  1  0  0  0  0
 19 35  1  0  0  0  0
 20 36  1  0  0  0  0
M  END
>  <Line_Number>
32


> <IC50>
1050000

$$$$
