172455978.0
 OpenBabel09302502343D

 48 49  0  0  1  0  0  0  0  0999 V2000
    1.7260   -1.5837    1.2232 O   0  0  0  0  0  0  0  0  0  0  0  0
    2.2512   -0.7178    0.5248 C   0  0  0  0  0  0  0  0  0  0  0  0
    1.8229    0.5510    0.6016 O   0  0  0  0  0  0  0  0  0  0  0  0
    3.2513   -1.0596   -0.5589 C   0  0  3  0  0  0  0  0  0  0  0  0
    2.5202   -1.0978   -1.9130 C   0  0  0  0  0  0  0  0  0  0  0  0
    1.2058   -2.3067   -2.1005 P   0  0  3  0  0  0  0  0  0  0  0  0
    1.4828   -3.1835   -3.2871 O   0  0  0  0  0  0  0  0  0  0  0  0
    1.2071   -3.1836   -0.7523 O   0  0  0  0  0  0  0  0  0  0  0  0
   -0.4850   -1.7088   -2.1914 C   0  0  0  0  0  0  0  0  0  0  0  0
   -0.8990   -0.4897   -1.3753 C   0  0  3  0  0  0  0  0  0  0  0  0
   -0.2560    0.7567   -1.9751 C   0  0  0  0  0  0  0  0  0  0  0  0
    0.6375    1.3823   -1.4203 O   0  0  0  0  0  0  0  0  0  0  0  0
   -0.6640    1.0804   -3.2167 O   0  0  0  0  0  0  0  0  0  0  0  0
   -2.4030   -0.2918   -1.1906 C   0  0  0  0  0  0  0  0  0  0  0  0
   -2.8611    0.3294   -0.0073 C   0  0  0  0  0  0  0  0  0  0  0  0
   -4.2241    0.5728    0.2117 C   0  0  0  0  0  0  0  0  0  0  0  0
   -5.1422    0.2038   -0.7589 C   0  0  0  0  0  0  0  0  0  0  0  0
   -6.4841    0.4145   -0.6134 O   0  0  0  0  0  0  0  0  0  0  0  0
   -4.7075   -0.4039   -1.9325 C   0  0  0  0  0  0  0  0  0  0  0  0
   -5.6132   -0.7575   -2.8933 O   0  0  0  0  0  0  0  0  0  0  0  0
   -3.3537   -0.6588   -2.1565 C   0  0  0  0  0  0  0  0  0  0  0  0
    4.5459   -0.2425   -0.5608 C   0  0  0  0  0  0  0  0  0  0  0  0
    4.8353    0.7569    0.3895 C   0  0  0  0  0  0  0  0  0  0  0  0
    6.0261    1.4949    0.3357 C   0  0  0  0  0  0  0  0  0  0  0  0
    6.9528    1.2228   -0.6585 C   0  0  0  0  0  0  0  0  0  0  0  0
    8.1140    1.9318   -0.7815 O   0  0  0  0  0  0  0  0  0  0  0  0
    6.7164    0.1981   -1.5644 C   0  0  0  0  0  0  0  0  0  0  0  0
    7.6361   -0.0831   -2.5333 O   0  0  0  0  0  0  0  0  0  0  0  0
    5.5427   -0.5444   -1.5104 C   0  0  0  0  0  0  0  0  0  0  0  0
    2.0024    1.1213   -0.1855 H   0  0  0  0  0  0  0  0  0  0  0  0
    3.5789   -2.0838   -0.3262 H   0  0  0  0  0  0  0  0  0  0  0  0
    3.2476   -1.3958   -2.6768 H   0  0  0  0  0  0  0  0  0  0  0  0
    2.2229   -0.1002   -2.2361 H   0  0  0  0  0  0  0  0  0  0  0  0
    1.0688   -2.7757    0.1331 H   0  0  0  0  0  0  0  0  0  0  0  0
   -1.1050   -2.5657   -1.8948 H   0  0  0  0  0  0  0  0  0  0  0  0
   -0.7074   -1.5483   -3.2532 H   0  0  0  0  0  0  0  0  0  0  0  0
   -0.4765   -0.6303   -0.3736 H   0  0  0  0  0  0  0  0  0  0  0  0
   -1.4149    0.5613   -3.5661 H   0  0  0  0  0  0  0  0  0  0  0  0
   -2.1525    0.6295    0.7643 H   0  0  0  0  0  0  0  0  0  0  0  0
   -4.5375    1.0494    1.1362 H   0  0  0  0  0  0  0  0  0  0  0  0
   -6.6367    0.8255    0.2558 H   0  0  0  0  0  0  0  0  0  0  0  0
   -6.4819   -0.5025   -2.5134 H   0  0  0  0  0  0  0  0  0  0  0  0
   -3.0792   -1.1441   -3.0870 H   0  0  0  0  0  0  0  0  0  0  0  0
    4.1516    0.9870    1.2040 H   0  0  0  0  0  0  0  0  0  0  0  0
    6.2035    2.2692    1.0757 H   0  0  0  0  0  0  0  0  0  0  0  0
    8.1260    2.6163   -0.0905 H   0  0  0  0  0  0  0  0  0  0  0  0
    8.3389    0.5853   -2.4081 H   0  0  0  0  0  0  0  0  0  0  0  0
    5.4229   -1.3628   -2.2173 H   0  0  0  0  0  0  0  0  0  0  0  0
  1  2  2  0  0  0  0
  2  3  1  0  0  0  0
  2  4  1  0  0  0  0
  3 30  1  0  0  0  0
  4  5  1  0  0  0  0
  4 22  1  0  0  0  0
  4 31  1  0  0  0  0
  5  6  1  0  0  0  0
  5 32  1  0  0  0  0
  5 33  1  0  0  0  0
  6  7  2  0  0  0  0
  6  8  1  0  0  0  0
  6  9  1  0  0  0  0
  8 34  1  0  0  0  0
  9 10  1  0  0  0  0
  9 35  1  0  0  0  0
  9 36  1  0  0  0  0
 10 11  1  0  0  0  0
 10 14  1  0  0  0  0
 10 37  1  0  0  0  0
 11 12  2  0  0  0  0
 11 13  1  0  0  0  0
 13 38  1  0  0  0  0
 14 15  1  0  0  0  0
 14 21  2  0  0  0  0
 15 16  2  0  0  0  0
 15 39  1  0  0  0  0
 16 17  1  0  0  0  0
 16 40  1  0  0  0  0
 17 18  1  0  0  0  0
 17 19  2  0  0  0  0
 18 41  1  0  0  0  0
 19 20  1  0  0  0  0
 19 21  1  0  0  0  0
 20 42  1  0  0  0  0
 21 43  1  0  0  0  0
 22 23  1  0  0  0  0
 22 29  2  0  0  0  0
 23 24  2  0  0  0  0
 23 44  1  0  0  0  0
 24 25  1  0  0  0  0
 24 45  1  0  0  0  0
 25 26  1  0  0  0  0
 25 27  2  0  0  0  0
 26 46  1  0  0  0  0
 27 28  1  0  0  0  0
 27 29  1  0  0  0  0
 28 47  1  0  0  0  0
 29 48  1  0  0  0  0
M  END
>  <Line_Number>
330


> <IC50>
9950

$$$$
