44543377.0
 OpenBabel09302502343D

 25 25  0  0  0  0  0  0  0  0999 V2000
    5.3068   -3.5684    4.0120 O   0  0  0  0  0  0  0  0  0  0  0  0
    4.8915   -3.1244    2.5880 P   0  0  0  0  0  0  0  0  0  0  0  0
    3.7236   -4.2755    2.4999 O   0  0  0  0  0  0  0  0  0  0  0  0
    3.9223   -1.9380    3.1808 O   0  0  0  0  0  0  0  0  0  0  0  0
    4.4007   -2.5997    0.9050 C   0  0  0  0  0  0  0  0  0  0  0  0
    4.9943   -1.2451    0.5261 C   0  0  0  0  0  0  0  0  0  0  0  0
    6.5002   -1.2259    0.5867 C   0  0  0  0  0  0  0  0  0  0  0  0
    7.2614   -2.0599   -0.2487 C   0  0  0  0  0  0  0  0  0  0  0  0
    8.6583   -2.0447   -0.1996 C   0  0  0  0  0  0  0  0  0  0  0  0
    9.2952   -1.1803    0.6809 C   0  0  0  0  0  0  0  0  0  0  0  0
   10.6573   -1.1085    0.7671 O   0  0  0  0  0  0  0  0  0  0  0  0
    8.5477   -0.3454    1.5086 C   0  0  0  0  0  0  0  0  0  0  0  0
    9.1834    0.5066    2.3676 O   0  0  0  0  0  0  0  0  0  0  0  0
    7.1606   -0.3625    1.4720 C   0  0  0  0  0  0  0  0  0  0  0  0
    3.6269   -4.6607    3.3939 H   0  0  0  0  0  0  0  0  0  0  0  0
    3.9253   -2.0228    4.1559 H   0  0  0  0  0  0  0  0  0  0  0  0
    3.3082   -2.5443    0.8180 H   0  0  0  0  0  0  0  0  0  0  0  0
    4.7382   -3.3759    0.2085 H   0  0  0  0  0  0  0  0  0  0  0  0
    4.5873   -0.4703    1.1860 H   0  0  0  0  0  0  0  0  0  0  0  0
    4.6804   -0.9730   -0.4907 H   0  0  0  0  0  0  0  0  0  0  0  0
    6.7687   -2.7270   -0.9552 H   0  0  0  0  0  0  0  0  0  0  0  0
    9.2227   -2.6997   -0.8554 H   0  0  0  0  0  0  0  0  0  0  0  0
   11.0347   -1.7306    0.1220 H   0  0  0  0  0  0  0  0  0  0  0  0
   10.1356    0.3504    2.2070 H   0  0  0  0  0  0  0  0  0  0  0  0
    6.6056    0.3059    2.1276 H   0  0  0  0  0  0  0  0  0  0  0  0
  1  2  2  0  0  0  0
  2  3  1  0  0  0  0
  2  4  1  0  0  0  0
  2  5  1  0  0  0  0
  3 15  1  0  0  0  0
  4 16  1  0  0  0  0
  5  6  1  0  0  0  0
  5 17  1  0  0  0  0
  5 18  1  0  0  0  0
  6  7  1  0  0  0  0
  6 19  1  0  0  0  0
  6 20  1  0  0  0  0
  7  8  1  0  0  0  0
  7 14  2  0  0  0  0
  8  9  2  0  0  0  0
  8 21  1  0  0  0  0
  9 10  1  0  0  0  0
  9 22  1  0  0  0  0
 10 11  1  0  0  0  0
 10 12  2  0  0  0  0
 11 23  1  0  0  0  0
 12 13  1  0  0  0  0
 12 14  1  0  0  0  0
 13 24  1  0  0  0  0
 14 25  1  0  0  0  0
M  END
>  <Line_Number>
331


> <IC50>
17850

$$$$
