172461878.0
 OpenBabel09302502343D

 54 55  0  0  1  0  0  0  0  0999 V2000
    7.5001   -2.7810   -4.8307 C   0  0  0  0  0  0  0  0  0  0  0  0
    7.3861   -1.6774   -3.9227 O   0  0  0  0  0  0  0  0  0  0  0  0
    6.5454   -1.8497   -2.8606 C   0  0  0  0  0  0  0  0  0  0  0  0
    5.8563   -2.8433   -2.6592 O   0  0  0  0  0  0  0  0  0  0  0  0
    6.6305   -0.6545   -1.9064 C   0  0  3  0  0  0  0  0  0  0  0  0
    5.2227   -0.3913   -1.3170 C   0  0  0  0  0  0  0  0  0  0  0  0
    4.6127   -1.7849   -0.2999 P   0  0  3  0  0  0  0  0  0  0  0  0
    4.2399   -0.8101    0.8304 O   0  0  0  0  0  0  0  0  0  0  0  0
    3.2265   -1.8393   -1.1980 O   0  0  0  0  0  0  0  0  0  0  0  0
    4.0027   -3.1785    0.7173 C   0  0  0  0  0  0  0  0  0  0  0  0
    4.3814   -4.5236    0.0777 C   0  0  3  0  0  0  0  0  0  0  0  0
    5.8982   -4.6091   -0.0310 C   0  0  0  0  0  0  0  0  0  0  0  0
    6.6697   -4.0174    0.7160 O   0  0  0  0  0  0  0  0  0  0  0  0
    6.2747   -5.4269   -1.0506 O   0  0  0  0  0  0  0  0  0  0  0  0
    7.6880   -5.5321   -1.2249 C   0  0  0  0  0  0  0  0  0  0  0  0
    3.8356   -5.7381    0.8231 C   0  0  0  0  0  0  0  0  0  0  0  0
    4.1652   -5.9946    2.1675 C   0  0  0  0  0  0  0  0  0  0  0  0
    3.7576   -7.1799    2.7971 C   0  0  0  0  0  0  0  0  0  0  0  0
    3.0262   -8.1144    2.0825 C   0  0  0  0  0  0  0  0  0  0  0  0
    2.6378   -9.3085    2.6200 O   0  0  0  0  0  0  0  0  0  0  0  0
    2.6670   -7.8576    0.7595 C   0  0  0  0  0  0  0  0  0  0  0  0
    1.9560   -8.7832    0.0502 O   0  0  0  0  0  0  0  0  0  0  0  0
    3.0606   -6.6829    0.1281 C   0  0  0  0  0  0  0  0  0  0  0  0
    7.7715   -0.8526   -0.9081 C   0  0  0  0  0  0  0  0  0  0  0  0
    7.5926   -0.8262    0.4881 C   0  0  0  0  0  0  0  0  0  0  0  0
    8.6228   -1.1822    1.3640 C   0  0  0  0  0  0  0  0  0  0  0  0
    9.8631   -1.5210    0.8519 C   0  0  0  0  0  0  0  0  0  0  0  0
   10.8943   -1.9185    1.6573 O   0  0  0  0  0  0  0  0  0  0  0  0
   10.0881   -1.4600   -0.5152 C   0  0  0  0  0  0  0  0  0  0  0  0
   11.3172   -1.7858   -1.0191 O   0  0  0  0  0  0  0  0  0  0  0  0
    9.0696   -1.1087   -1.3889 C   0  0  0  0  0  0  0  0  0  0  0  0
    7.8593   -2.3847   -5.7887 H   0  0  0  0  0  0  0  0  0  0  0  0
    6.5406   -3.2694   -5.0026 H   0  0  0  0  0  0  0  0  0  0  0  0
    8.2347   -3.4968   -4.4557 H   0  0  0  0  0  0  0  0  0  0  0  0
    6.8754    0.2318   -2.5079 H   0  0  0  0  0  0  0  0  0  0  0  0
    4.5325   -0.2013   -2.1490 H   0  0  0  0  0  0  0  0  0  0  0  0
    5.2555    0.5402   -0.7371 H   0  0  0  0  0  0  0  0  0  0  0  0
    2.6202   -1.1162   -0.9280 H   0  0  0  0  0  0  0  0  0  0  0  0
    2.9177   -3.1100    0.8668 H   0  0  0  0  0  0  0  0  0  0  0  0
    4.4625   -3.0951    1.7108 H   0  0  0  0  0  0  0  0  0  0  0  0
    3.9874   -4.5127   -0.9478 H   0  0  0  0  0  0  0  0  0  0  0  0
    7.8768   -6.0126   -2.1886 H   0  0  0  0  0  0  0  0  0  0  0  0
    8.1108   -6.1567   -0.4327 H   0  0  0  0  0  0  0  0  0  0  0  0
    8.1655   -4.5465   -1.2363 H   0  0  0  0  0  0  0  0  0  0  0  0
    4.7711   -5.2882    2.7316 H   0  0  0  0  0  0  0  0  0  0  0  0
    4.0406   -7.3588    3.8289 H   0  0  0  0  0  0  0  0  0  0  0  0
    3.0200   -9.3724    3.5118 H   0  0  0  0  0  0  0  0  0  0  0  0
    1.8394   -9.5283    0.6740 H   0  0  0  0  0  0  0  0  0  0  0  0
    2.7829   -6.5235   -0.9102 H   0  0  0  0  0  0  0  0  0  0  0  0
    6.6451   -0.5510    0.9445 H   0  0  0  0  0  0  0  0  0  0  0  0
    8.4209   -1.2044    2.4284 H   0  0  0  0  0  0  0  0  0  0  0  0
   10.5474   -1.9819    2.5646 H   0  0  0  0  0  0  0  0  0  0  0  0
   11.8371   -2.0406   -0.2389 H   0  0  0  0  0  0  0  0  0  0  0  0
    9.2969   -1.0724   -2.4516 H   0  0  0  0  0  0  0  0  0  0  0  0
  1  2  1  0  0  0  0
  1 32  1  0  0  0  0
  1 33  1  0  0  0  0
  1 34  1  0  0  0  0
  2  3  1  0  0  0  0
  3  4  2  0  0  0  0
  3  5  1  0  0  0  0
  5  6  1  0  0  0  0
  5 24  1  0  0  0  0
  5 35  1  0  0  0  0
  6  7  1  0  0  0  0
  6 36  1  0  0  0  0
  6 37  1  0  0  0  0
  7  8  2  0  0  0  0
  7  9  1  0  0  0  0
  7 10  1  0  0  0  0
  9 38  1  0  0  0  0
 10 11  1  0  0  0  0
 10 39  1  0  0  0  0
 10 40  1  0  0  0  0
 11 12  1  0  0  0  0
 11 16  1  0  0  0  0
 11 41  1  0  0  0  0
 12 13  2  0  0  0  0
 12 14  1  0  0  0  0
 14 15  1  0  0  0  0
 15 42  1  0  0  0  0
 15 43  1  0  0  0  0
 15 44  1  0  0  0  0
 16 17  1  0  0  0  0
 16 23  2  0  0  0  0
 17 18  2  0  0  0  0
 17 45  1  0  0  0  0
 18 19  1  0  0  0  0
 18 46  1  0  0  0  0
 19 20  1  0  0  0  0
 19 21  2  0  0  0  0
 20 47  1  0  0  0  0
 21 22  1  0  0  0  0
 21 23  1  0  0  0  0
 22 48  1  0  0  0  0
 23 49  1  0  0  0  0
 24 25  1  0  0  0  0
 24 31  2  0  0  0  0
 25 26  2  0  0  0  0
 25 50  1  0  0  0  0
 26 27  1  0  0  0  0
 26 51  1  0  0  0  0
 27 28  1  0  0  0  0
 27 29  2  0  0  0  0
 28 52  1  0  0  0  0
 29 30  1  0  0  0  0
 29 31  1  0  0  0  0
 30 53  1  0  0  0  0
 31 54  1  0  0  0  0
M  END
>  <Line_Number>
332


> <IC50>
56775

$$$$
