172440200.0
 OpenBabel09302502343D

 28 28  0  0  1  0  0  0  0  0999 V2000
    1.4413    0.2033   -0.9154 O   0  0  0  0  0  0  0  0  0  0  0  0
    2.3843    0.0973   -0.1407 C   0  0  0  0  0  0  0  0  0  0  0  0
    2.6976    1.0803    0.7354 O   0  0  0  0  0  0  0  0  0  0  0  0
    3.2255   -1.1612    0.0165 C   0  0  3  0  0  0  0  0  0  0  0  0
    2.7571   -2.2457   -0.9555 C   0  0  0  0  0  0  0  0  0  0  0  0
    3.1437   -2.1512   -2.6820 P   0  0  0  0  0  0  0  0  0  0  0  0
    4.4172   -2.8026   -3.1187 O   0  0  0  0  0  0  0  0  0  0  0  0
    1.8514   -2.7442   -3.4258 O   0  0  0  0  0  0  0  0  0  0  0  0
    3.0467   -0.6499   -3.2217 O   0  0  0  0  0  0  0  0  0  0  0  0
    4.7323   -0.9402    0.0264 C   0  0  0  0  0  0  0  0  0  0  0  0
    5.2949    0.0862   -0.7629 C   0  0  0  0  0  0  0  0  0  0  0  0
    6.6748    0.2591   -0.8142 C   0  0  0  0  0  0  0  0  0  0  0  0
    7.2503    1.2488   -1.5599 O   0  0  0  0  0  0  0  0  0  0  0  0
    7.5168   -0.5841   -0.1013 C   0  0  0  0  0  0  0  0  0  0  0  0
    8.8705   -0.4410   -0.1984 O   0  0  0  0  0  0  0  0  0  0  0  0
    6.9991   -1.5784    0.7103 C   0  0  0  0  0  0  0  0  0  0  0  0
    5.6116   -1.7509    0.7832 C   0  0  0  0  0  0  0  0  0  0  0  0
    4.9952   -3.1004    1.9749 Br  0  0  0  0  0  0  0  0  0  0  0  0
    3.4244    0.8613    1.3545 H   0  0  0  0  0  0  0  0  0  0  0  0
    2.9247   -1.5018    1.0165 H   0  0  0  0  0  0  0  0  0  0  0  0
    1.6663   -2.3352   -0.8666 H   0  0  0  0  0  0  0  0  0  0  0  0
    3.1482   -3.2142   -0.6218 H   0  0  0  0  0  0  0  0  0  0  0  0
    1.0010   -2.3690   -3.1210 H   0  0  0  0  0  0  0  0  0  0  0  0
    3.2685   -0.6370   -4.1789 H   0  0  0  0  0  0  0  0  0  0  0  0
    4.6565    0.7491   -1.3435 H   0  0  0  0  0  0  0  0  0  0  0  0
    6.5457    1.7605   -1.9944 H   0  0  0  0  0  0  0  0  0  0  0  0
    9.0004    0.2574   -0.8712 H   0  0  0  0  0  0  0  0  0  0  0  0
    7.6794   -2.2137    1.2703 H   0  0  0  0  0  0  0  0  0  0  0  0
  1  2  2  0  0  0  0
  2  3  1  0  0  0  0
  2  4  1  0  0  0  0
  3 19  1  0  0  0  0
  4  5  1  0  0  0  0
  4 10  1  0  0  0  0
  4 20  1  0  0  0  0
  5  6  1  0  0  0  0
  5 21  1  0  0  0  0
  5 22  1  0  0  0  0
  6  7  2  0  0  0  0
  6  8  1  0  0  0  0
  6  9  1  0  0  0  0
  8 23  1  0  0  0  0
  9 24  1  0  0  0  0
 10 11  1  0  0  0  0
 10 17  2  0  0  0  0
 11 12  2  0  0  0  0
 11 25  1  0  0  0  0
 12 13  1  0  0  0  0
 12 14  1  0  0  0  0
 13 26  1  0  0  0  0
 14 15  1  0  0  0  0
 14 16  2  0  0  0  0
 15 27  1  0  0  0  0
 16 17  1  0  0  0  0
 16 28  1  0  0  0  0
 17 18  1  0  0  0  0
M  END
>  <Line_Number>
333


> <IC50>
42550

$$$$
