172446415.0
 OpenBabel09302502343D

 36 36  0  0  1  0  0  0  0  0999 V2000
    6.0690   -1.7005   -2.0977 O   0  0  0  0  0  0  0  0  0  0  0  0
    5.8401   -0.5156   -1.9006 C   0  0  0  0  0  0  0  0  0  0  0  0
    6.0237    0.4290   -2.8445 O   0  0  0  0  0  0  0  0  0  0  0  0
    5.3643    0.0302   -0.5800 C   0  0  0  0  0  0  0  0  0  0  0  0
    4.4905   -1.0044    0.1151 C   0  0  0  0  0  0  0  0  0  0  0  0
    5.3737   -2.5639    0.4853 P   0  0  3  0  0  0  0  0  0  0  0  0
    5.5373   -2.0739    1.9219 O   0  0  0  0  0  0  0  0  0  0  0  0
    3.9232   -3.3563    0.5622 O   0  0  0  0  0  0  0  0  0  0  0  0
    6.2568   -4.1234    0.8554 C   0  0  0  0  0  0  0  0  0  0  0  0
    7.5967   -3.9506    1.6103 C   0  0  3  0  0  0  0  0  0  0  0  0
    7.5108   -3.2953    3.0083 C   0  0  0  0  0  0  0  0  0  0  0  0
    8.0455   -2.2278    3.2835 O   0  0  0  0  0  0  0  0  0  0  0  0
    6.8975   -4.0441    3.9597 O   0  0  0  0  0  0  0  0  0  0  0  0
    8.3858   -5.2500    1.7477 C   0  0  0  0  0  0  0  0  0  0  0  0
    7.7655   -6.5106    1.8414 C   0  0  0  0  0  0  0  0  0  0  0  0
    8.5172   -7.6603    2.0975 C   0  0  0  0  0  0  0  0  0  0  0  0
    9.8908   -7.5502    2.2508 C   0  0  0  0  0  0  0  0  0  0  0  0
   10.6722   -8.6365    2.5299 O   0  0  0  0  0  0  0  0  0  0  0  0
   10.5146   -6.3115    2.1604 C   0  0  0  0  0  0  0  0  0  0  0  0
   11.8654   -6.2051    2.3278 O   0  0  0  0  0  0  0  0  0  0  0  0
    9.7782   -5.1631    1.9107 C   0  0  0  0  0  0  0  0  0  0  0  0
    5.8277    1.3410   -2.5547 H   0  0  0  0  0  0  0  0  0  0  0  0
    4.7650    0.9312   -0.7503 H   0  0  0  0  0  0  0  0  0  0  0  0
    6.2388    0.2871    0.0234 H   0  0  0  0  0  0  0  0  0  0  0  0
    3.6560   -1.2485   -0.5561 H   0  0  0  0  0  0  0  0  0  0  0  0
    4.0392   -0.5653    1.0135 H   0  0  0  0  0  0  0  0  0  0  0  0
    3.4174   -3.0496    1.3469 H   0  0  0  0  0  0  0  0  0  0  0  0
    6.4282   -4.6252   -0.1041 H   0  0  0  0  0  0  0  0  0  0  0  0
    5.5854   -4.7565    1.4476 H   0  0  0  0  0  0  0  0  0  0  0  0
    8.1957   -3.2574    1.0025 H   0  0  0  0  0  0  0  0  0  0  0  0
    6.6322   -4.9272    3.6518 H   0  0  0  0  0  0  0  0  0  0  0  0
    6.6877   -6.6228    1.7422 H   0  0  0  0  0  0  0  0  0  0  0  0
    8.0120   -8.6148    2.1847 H   0  0  0  0  0  0  0  0  0  0  0  0
   10.0920   -9.4124    2.6057 H   0  0  0  0  0  0  0  0  0  0  0  0
   12.1662   -7.1186    2.5016 H   0  0  0  0  0  0  0  0  0  0  0  0
   10.2875   -4.2007    1.8811 H   0  0  0  0  0  0  0  0  0  0  0  0
  1  2  2  0  0  0  0
  2  3  1  0  0  0  0
  2  4  1  0  0  0  0
  3 22  1  0  0  0  0
  4  5  1  0  0  0  0
  4 23  1  0  0  0  0
  4 24  1  0  0  0  0
  5  6  1  0  0  0  0
  5 25  1  0  0  0  0
  5 26  1  0  0  0  0
  6  7  2  0  0  0  0
  6  8  1  0  0  0  0
  6  9  1  0  0  0  0
  8 27  1  0  0  0  0
  9 10  1  0  0  0  0
  9 28  1  0  0  0  0
  9 29  1  0  0  0  0
 10 11  1  0  0  0  0
 10 14  1  0  0  0  0
 10 30  1  0  0  0  0
 11 12  2  0  0  0  0
 11 13  1  0  0  0  0
 13 31  1  0  0  0  0
 14 15  1  0  0  0  0
 14 21  2  0  0  0  0
 15 16  2  0  0  0  0
 15 32  1  0  0  0  0
 16 17  1  0  0  0  0
 16 33  1  0  0  0  0
 17 18  1  0  0  0  0
 17 19  2  0  0  0  0
 18 34  1  0  0  0  0
 19 20  1  0  0  0  0
 19 21  1  0  0  0  0
 20 35  1  0  0  0  0
 21 36  1  0  0  0  0
M  END
>  <Line_Number>
334


> <IC50>
7705

$$$$
