172470549.0
 OpenBabel09302502343D

 31 31  0  0  1  0  0  0  0  0999 V2000
    1.0227   -1.2874   -0.1794 C   0  0  0  0  0  0  0  0  0  0  0  0
    2.4503   -1.2842   -0.2394 O   0  0  0  0  0  0  0  0  0  0  0  0
    2.9880   -0.3490   -1.0647 C   0  0  0  0  0  0  0  0  0  0  0  0
    2.3285    0.4419   -1.7292 O   0  0  0  0  0  0  0  0  0  0  0  0
    4.5178   -0.4246   -1.1144 C   0  0  3  0  0  0  0  0  0  0  0  0
    5.1242   -1.3211   -0.0233 C   0  0  0  0  0  0  0  0  0  0  0  0
    5.1668   -0.7518    1.6597 P   0  0  0  0  0  0  0  0  0  0  0  0
    5.9273   -1.6167    2.6114 O   0  0  0  0  0  0  0  0  0  0  0  0
    5.6772    0.7644    1.6684 O   0  0  0  0  0  0  0  0  0  0  0  0
    3.6809   -0.5158    2.2041 O   0  0  0  0  0  0  0  0  0  0  0  0
    5.0711   -0.7986   -2.5052 C   0  0  0  0  0  0  0  0  0  0  0  0
    4.2590   -1.2231   -3.5776 C   0  0  0  0  0  0  0  0  0  0  0  0
    4.8029   -1.5138   -4.8400 C   0  0  0  0  0  0  0  0  0  0  0  0
    6.1704   -1.3992   -5.0389 C   0  0  0  0  0  0  0  0  0  0  0  0
    6.7574   -1.6547   -6.2467 O   0  0  0  0  0  0  0  0  0  0  0  0
    6.9897   -1.0031   -3.9906 C   0  0  0  0  0  0  0  0  0  0  0  0
    8.3390   -0.9037   -4.1809 O   0  0  0  0  0  0  0  0  0  0  0  0
    6.4575   -0.6932   -2.7427 C   0  0  0  0  0  0  0  0  0  0  0  0
    0.7209   -1.9537    0.6336 H   0  0  0  0  0  0  0  0  0  0  0  0
    0.6182   -1.6771   -1.1180 H   0  0  0  0  0  0  0  0  0  0  0  0
    0.6263   -0.2885    0.0297 H   0  0  0  0  0  0  0  0  0  0  0  0
    4.8429    0.6068   -0.9225 H   0  0  0  0  0  0  0  0  0  0  0  0
    6.1811   -1.4983   -0.2456 H   0  0  0  0  0  0  0  0  0  0  0  0
    4.6620   -2.3148   -0.0467 H   0  0  0  0  0  0  0  0  0  0  0  0
    5.1675    1.4034    1.1398 H   0  0  0  0  0  0  0  0  0  0  0  0
    3.7024   -0.4435    3.1760 H   0  0  0  0  0  0  0  0  0  0  0  0
    3.1807   -1.3201   -3.4671 H   0  0  0  0  0  0  0  0  0  0  0  0
    4.1417   -1.8204   -5.6451 H   0  0  0  0  0  0  0  0  0  0  0  0
    6.0542   -1.8302   -6.8954 H   0  0  0  0  0  0  0  0  0  0  0  0
    8.4748   -1.1664   -5.1136 H   0  0  0  0  0  0  0  0  0  0  0  0
    7.1416   -0.3682   -1.9627 H   0  0  0  0  0  0  0  0  0  0  0  0
  1  2  1  0  0  0  0
  1 19  1  0  0  0  0
  1 20  1  0  0  0  0
  1 21  1  0  0  0  0
  2  3  1  0  0  0  0
  3  4  2  0  0  0  0
  3  5  1  0  0  0  0
  5  6  1  0  0  0  0
  5 11  1  0  0  0  0
  5 22  1  0  0  0  0
  6  7  1  0  0  0  0
  6 23  1  0  0  0  0
  6 24  1  0  0  0  0
  7  8  2  0  0  0  0
  7  9  1  0  0  0  0
  7 10  1  0  0  0  0
  9 25  1  0  0  0  0
 10 26  1  0  0  0  0
 11 12  1  0  0  0  0
 11 18  2  0  0  0  0
 12 13  2  0  0  0  0
 12 27  1  0  0  0  0
 13 14  1  0  0  0  0
 13 28  1  0  0  0  0
 14 15  1  0  0  0  0
 14 16  2  0  0  0  0
 15 29  1  0  0  0  0
 16 17  1  0  0  0  0
 16 18  1  0  0  0  0
 17 30  1  0  0  0  0
 18 31  1  0  0  0  0
M  END
>  <Line_Number>
335


> <IC50>
54700

$$$$
