172441090.0
 OpenBabel09302502343D

 26 26  0  0  1  0  0  0  0  0999 V2000
    1.0713    0.4285   -0.0286 O   0  0  0  0  0  0  0  0  0  0  0  0
    2.0703   -0.1893    0.3154 C   0  0  0  0  0  0  0  0  0  0  0  0
    2.4269   -0.2823    1.6174 O   0  0  0  0  0  0  0  0  0  0  0  0
    2.9669   -0.9841   -0.6283 C   0  0  3  0  0  0  0  0  0  0  0  0
    2.4627   -0.9562   -2.0812 C   0  0  0  0  0  0  0  0  0  0  0  0
    2.3286    0.6990   -2.9003 P   0  3  3  0  0  0  0  0  0  0  0  0
    3.7309    1.0019   -3.1640 O   0  0  0  0  0  0  0  0  0  0  0  0
    1.9960    0.2059   -4.4022 O   0  0  0  0  0  0  0  0  0  0  0  0
    4.4590   -0.6981   -0.5146 C   0  0  0  0  0  0  0  0  0  0  0  0
    4.9657    0.5625   -0.1621 C   0  0  0  0  0  0  0  0  0  0  0  0
    6.3404    0.8173   -0.1988 C   0  0  0  0  0  0  0  0  0  0  0  0
    7.2112   -0.1868   -0.6040 C   0  0  0  0  0  0  0  0  0  0  0  0
    8.5570    0.0249   -0.7113 O   0  0  0  0  0  0  0  0  0  0  0  0
    6.7239   -1.4435   -0.9390 C   0  0  0  0  0  0  0  0  0  0  0  0
    7.5805   -2.4158   -1.3635 O   0  0  0  0  0  0  0  0  0  0  0  0
    5.3626   -1.7083   -0.8891 C   0  0  0  0  0  0  0  0  0  0  0  0
    3.2332   -0.8113    1.7739 H   0  0  0  0  0  0  0  0  0  0  0  0
    2.8254   -2.0209   -0.2865 H   0  0  0  0  0  0  0  0  0  0  0  0
    1.4500   -1.3790   -2.1024 H   0  0  0  0  0  0  0  0  0  0  0  0
    3.0831   -1.6146   -2.7014 H   0  0  0  0  0  0  0  0  0  0  0  0
    2.2526    0.9462   -4.9895 H   0  0  0  0  0  0  0  0  0  0  0  0
    4.2993    1.3806    0.1079 H   0  0  0  0  0  0  0  0  0  0  0  0
    6.7021    1.8099    0.0549 H   0  0  0  0  0  0  0  0  0  0  0  0
    8.7235    0.9694   -0.5545 H   0  0  0  0  0  0  0  0  0  0  0  0
    8.4502   -1.9711   -1.4113 H   0  0  0  0  0  0  0  0  0  0  0  0
    5.0171   -2.6930   -1.1918 H   0  0  0  0  0  0  0  0  0  0  0  0
  1  2  2  0  0  0  0
  2  3  1  0  0  0  0
  2  4  1  0  0  0  0
  3 17  1  0  0  0  0
  4  5  1  0  0  0  0
  4  9  1  0  0  0  0
  4 18  1  0  0  0  0
  5  6  1  0  0  0  0
  5 19  1  0  0  0  0
  5 20  1  0  0  0  0
  6  7  2  0  0  0  0
  6  8  1  0  0  0  0
  8 21  1  0  0  0  0
  9 10  1  0  0  0  0
  9 16  2  0  0  0  0
 10 11  2  0  0  0  0
 10 22  1  0  0  0  0
 11 12  1  0  0  0  0
 11 23  1  0  0  0  0
 12 13  1  0  0  0  0
 12 14  2  0  0  0  0
 13 24  1  0  0  0  0
 14 15  1  0  0  0  0
 14 16  1  0  0  0  0
 15 25  1  0  0  0  0
 16 26  1  0  0  0  0
M  CHG  1   6   1
M  END
>  <Line_Number>
336


> <IC50>
34650

$$$$
