471.0
 OpenBabel09302502333D

 34 36  0  0  1  0  0  0  0  0999 V2000
    0.9931   -0.1260    0.1448 O   0  0  0  0  0  0  0  0  0  0  0  0
    2.2160   -0.0598    0.0679 C   0  0  0  0  0  0  0  0  0  0  0  0
    3.0008   -1.2729   -0.2014 C   0  0  0  0  0  0  0  0  0  0  0  0
    2.4279   -2.5439   -0.0753 C   0  0  0  0  0  0  0  0  0  0  0  0
    1.1156   -2.7415    0.2624 O   0  0  0  0  0  0  0  0  0  0  0  0
    3.1965   -3.6847   -0.2775 C   0  0  0  0  0  0  0  0  0  0  0  0
    4.5411   -3.5403   -0.6157 C   0  0  0  0  0  0  0  0  0  0  0  0
    5.3338   -4.6312   -0.8191 O   0  0  0  0  0  0  0  0  0  0  0  0
    5.1195   -2.2768   -0.7565 C   0  0  0  0  0  0  0  0  0  0  0  0
    4.3458   -1.1332   -0.5587 C   0  0  0  0  0  0  0  0  0  0  0  0
    4.9776    0.0796   -0.7065 O   0  0  0  0  0  0  0  0  0  0  0  0
    4.0780    1.1966   -0.8721 C   0  0  3  0  0  0  0  0  0  0  0  0
    4.8756    2.4935   -0.8909 C   0  0  0  0  0  0  0  0  0  0  0  0
    5.6734    2.8845    0.2015 C   0  0  0  0  0  0  0  0  0  0  0  0
    6.2992    4.1374    0.2244 C   0  0  0  0  0  0  0  0  0  0  0  0
    6.1382    4.9976   -0.8539 C   0  0  0  0  0  0  0  0  0  0  0  0
    6.7085    6.2402   -0.8835 O   0  0  0  0  0  0  0  0  0  0  0  0
    5.3699    4.6127   -1.9475 C   0  0  0  0  0  0  0  0  0  0  0  0
    5.2067    5.4664   -3.0013 O   0  0  0  0  0  0  0  0  0  0  0  0
    4.7426    3.3744   -1.9785 C   0  0  0  0  0  0  0  0  0  0  0  0
    3.0212    1.2139    0.2424 C   0  0  3  0  0  0  0  0  0  0  0  0
    2.1812    2.3635    0.2130 O   0  0  0  0  0  0  0  0  0  0  0  0
    0.6712   -1.8646    0.3140 H   0  0  0  0  0  0  0  0  0  0  0  0
    2.7408   -4.6618   -0.1659 H   0  0  0  0  0  0  0  0  0  0  0  0
    4.8026   -5.4354   -0.6861 H   0  0  0  0  0  0  0  0  0  0  0  0
    6.1694   -2.1931   -1.0257 H   0  0  0  0  0  0  0  0  0  0  0  0
    3.5925    1.0856   -1.8532 H   0  0  0  0  0  0  0  0  0  0  0  0
    5.7897    2.2241    1.0588 H   0  0  0  0  0  0  0  0  0  0  0  0
    6.8864    4.4229    1.0913 H   0  0  0  0  0  0  0  0  0  0  0  0
    7.1954    6.3687   -0.0514 H   0  0  0  0  0  0  0  0  0  0  0  0
    5.7141    6.2638   -2.7491 H   0  0  0  0  0  0  0  0  0  0  0  0
    4.1315    3.1200   -2.8401 H   0  0  0  0  0  0  0  0  0  0  0  0
    3.4821    1.1671    1.2363 H   0  0  0  0  0  0  0  0  0  0  0  0
    1.6291    2.3183   -0.5878 H   0  0  0  0  0  0  0  0  0  0  0  0
  1  2  2  0  0  0  0
  2  3  1  0  0  0  0
  2 21  1  0  0  0  0
  3  4  1  0  0  0  0
  3 10  2  0  0  0  0
  4  5  1  0  0  0  0
  4  6  2  0  0  0  0
  5 23  1  0  0  0  0
  6  7  1  0  0  0  0
  6 24  1  0  0  0  0
  7  8  1  0  0  0  0
  7  9  2  0  0  0  0
  8 25  1  0  0  0  0
  9 10  1  0  0  0  0
  9 26  1  0  0  0  0
 10 11  1  0  0  0  0
 11 12  1  0  0  0  0
 12 13  1  0  0  0  0
 12 21  1  0  0  0  0
 12 27  1  0  0  0  0
 13 14  1  0  0  0  0
 13 20  2  0  0  0  0
 14 15  2  0  0  0  0
 14 28  1  0  0  0  0
 15 16  1  0  0  0  0
 15 29  1  0  0  0  0
 16 17  1  0  0  0  0
 16 18  2  0  0  0  0
 17 30  1  0  0  0  0
 18 19  1  0  0  0  0
 18 20  1  0  0  0  0
 19 31  1  0  0  0  0
 20 32  1  0  0  0  0
 21 22  1  0  0  0  0
 21 33  1  0  0  0  0
 22 34  1  0  0  0  0
M  END
>  <Line_Number>
33


> <IC50>
43700

$$$$
