72197321.0
 OpenBabel09302502333D

 31 33  0  0  0  0  0  0  0  0999 V2000
    2.2857   -0.3320    0.0688 O   0  0  0  0  0  0  0  0  0  0  0  0
    0.9311   -0.1872    0.0472 C   0  0  0  0  0  0  0  0  0  0  0  0
    0.3122    0.9255    0.5978 C   0  0  0  0  0  0  0  0  0  0  0  0
   -1.0828    1.0267    0.5558 C   0  0  0  0  0  0  0  0  0  0  0  0
   -1.8765    0.0317   -0.0469 C   0  0  0  0  0  0  0  0  0  0  0  0
   -3.3578    0.1523   -0.0835 C   0  0  0  0  0  0  0  0  0  0  0  0
   -3.9535    1.3557   -0.1419 C   0  0  0  0  0  0  0  0  0  0  0  0
   -5.3077    1.5892   -0.1553 O   0  0  0  0  0  0  0  0  0  0  0  0
   -6.1591    0.5125   -0.1124 C   0  0  0  0  0  0  0  0  0  0  0  0
   -5.6932   -0.8083   -0.0830 C   0  0  0  0  0  0  0  0  0  0  0  0
   -6.6229   -1.8640   -0.0705 C   0  0  0  0  0  0  0  0  0  0  0  0
   -7.9977   -1.6050   -0.0770 C   0  0  0  0  0  0  0  0  0  0  0  0
   -8.4401   -0.2877   -0.0900 C   0  0  0  0  0  0  0  0  0  0  0  0
   -9.7728    0.0266   -0.0891 O   0  0  0  0  0  0  0  0  0  0  0  0
   -7.5286    0.7662   -0.1068 C   0  0  0  0  0  0  0  0  0  0  0  0
   -8.0029    2.0514   -0.1154 O   0  0  0  0  0  0  0  0  0  0  0  0
   -4.2099   -1.0929   -0.0748 C   0  0  0  0  0  0  0  0  0  0  0  0
   -1.2167   -1.0846   -0.5868 C   0  0  0  0  0  0  0  0  0  0  0  0
    0.1778   -1.1921   -0.5420 C   0  0  0  0  0  0  0  0  0  0  0  0
    2.6724    0.4366    0.5197 H   0  0  0  0  0  0  0  0  0  0  0  0
    0.8863    1.7195    1.0644 H   0  0  0  0  0  0  0  0  0  0  0  0
   -1.5408    1.8990    1.0166 H   0  0  0  0  0  0  0  0  0  0  0  0
   -3.4412    2.3077   -0.1886 H   0  0  0  0  0  0  0  0  0  0  0  0
   -6.2760   -2.8954   -0.0590 H   0  0  0  0  0  0  0  0  0  0  0  0
   -8.6968   -2.4355   -0.0716 H   0  0  0  0  0  0  0  0  0  0  0  0
  -10.2816   -0.8022   -0.0867 H   0  0  0  0  0  0  0  0  0  0  0  0
   -8.9749    1.9564   -0.0966 H   0  0  0  0  0  0  0  0  0  0  0  0
   -3.9906   -1.7025   -0.9592 H   0  0  0  0  0  0  0  0  0  0  0  0
   -3.9776   -1.6815    0.8219 H   0  0  0  0  0  0  0  0  0  0  0  0
   -1.7689   -1.8868   -1.0690 H   0  0  0  0  0  0  0  0  0  0  0  0
    0.6729   -2.0586   -0.9713 H   0  0  0  0  0  0  0  0  0  0  0  0
  1  2  1  0  0  0  0
  1 20  1  0  0  0  0
  2  3  1  0  0  0  0
  2 19  2  0  0  0  0
  3  4  2  0  0  0  0
  3 21  1  0  0  0  0
  4  5  1  0  0  0  0
  4 22  1  0  0  0  0
  5  6  1  0  0  0  0
  5 18  2  0  0  0  0
  6  7  2  0  0  0  0
  6 17  1  0  0  0  0
  7  8  1  0  0  0  0
  7 23  1  0  0  0  0
  8  9  1  0  0  0  0
  9 10  1  0  0  0  0
  9 15  2  0  0  0  0
 10 11  2  0  0  0  0
 10 17  1  0  0  0  0
 11 12  1  0  0  0  0
 11 24  1  0  0  0  0
 12 13  2  0  0  0  0
 12 25  1  0  0  0  0
 13 14  1  0  0  0  0
 13 15  1  0  0  0  0
 14 26  1  0  0  0  0
 15 16  1  0  0  0  0
 16 27  1  0  0  0  0
 17 28  1  0  0  0  0
 17 29  1  0  0  0  0
 18 19  1  0  0  0  0
 18 30  1  0  0  0  0
 19 31  1  0  0  0  0
M  END
>  <Line_Number>
34


> <IC50>
745

$$$$
