23652247.0
 OpenBabel09302502333D

 35 37  0  0  1  0  0  0  0  0999 V2000
    2.1377    0.0387   -1.6183 C   0  0  0  0  0  0  0  0  0  0  0  0
    1.8417    0.7559   -0.4247 O   0  0  0  0  0  0  0  0  0  0  0  0
    2.4561    1.9687   -0.2787 C   0  0  0  0  0  0  0  0  0  0  0  0
    3.3819    2.5240   -1.1558 C   0  0  0  0  0  0  0  0  0  0  0  0
    3.9359    3.7756   -0.8911 C   0  0  0  0  0  0  0  0  0  0  0  0
    3.5676    4.5027    0.2529 C   0  0  0  0  0  0  0  0  0  0  0  0
    4.2270    5.8362    0.4925 C   0  0  3  0  0  0  0  0  0  0  0  0
    3.2893    7.0452    0.7409 C   0  0  0  0  0  0  0  0  0  0  0  0
    3.8457    8.1145    1.5485 O   0  0  0  0  0  0  0  0  0  0  0  0
    5.2028    8.2349    1.3906 C   0  0  0  0  0  0  0  0  0  0  0  0
    5.7438    9.4873    1.1411 C   0  0  0  0  0  0  0  0  0  0  0  0
    7.0801    9.5606    0.7605 C   0  0  0  0  0  0  0  0  0  0  0  0
    7.6505   10.7493    0.4088 O   0  0  0  0  0  0  0  0  0  0  0  0
    7.8731    8.4163    0.6759 C   0  0  0  0  0  0  0  0  0  0  0  0
    7.3439    7.1740    1.0224 C   0  0  0  0  0  0  0  0  0  0  0  0
    6.0044    7.0871    1.3959 C   0  0  0  0  0  0  0  0  0  0  0  0
    5.2940    5.7800    1.5838 C   0  0  0  0  0  0  0  0  0  0  0  0
    2.6531    3.9375    1.1413 C   0  0  0  0  0  0  0  0  0  0  0  0
    2.1050    2.6780    0.8688 C   0  0  0  0  0  0  0  0  0  0  0  0
    1.5477   -0.8818   -1.6122 H   0  0  0  0  0  0  0  0  0  0  0  0
    3.1957   -0.2427   -1.6545 H   0  0  0  0  0  0  0  0  0  0  0  0
    1.8513    0.6122   -2.5069 H   0  0  0  0  0  0  0  0  0  0  0  0
    3.7048    2.0047   -2.0526 H   0  0  0  0  0  0  0  0  0  0  0  0
    4.6682    4.1737   -1.5913 H   0  0  0  0  0  0  0  0  0  0  0  0
    4.7480    6.0802   -0.4486 H   0  0  0  0  0  0  0  0  0  0  0  0
    2.3569    6.7430    1.2273 H   0  0  0  0  0  0  0  0  0  0  0  0
    3.0046    7.4846   -0.2245 H   0  0  0  0  0  0  0  0  0  0  0  0
    5.1078   10.3638    1.1756 H   0  0  0  0  0  0  0  0  0  0  0  0
    6.9920   11.4526    0.5323 H   0  0  0  0  0  0  0  0  0  0  0  0
    8.8951    8.4906    0.3152 H   0  0  0  0  0  0  0  0  0  0  0  0
    7.9535    6.2794    0.9288 H   0  0  0  0  0  0  0  0  0  0  0  0
    4.8536    5.7219    2.5885 H   0  0  0  0  0  0  0  0  0  0  0  0
    5.9718    4.9277    1.4688 H   0  0  0  0  0  0  0  0  0  0  0  0
    2.3654    4.4557    2.0528 H   0  0  0  0  0  0  0  0  0  0  0  0
    1.3862    2.2483    1.5683 H   0  0  0  0  0  0  0  0  0  0  0  0
  1  2  1  0  0  0  0
  1 20  1  0  0  0  0
  1 21  1  0  0  0  0
  1 22  1  0  0  0  0
  2  3  1  0  0  0  0
  3  4  1  0  0  0  0
  3 19  2  0  0  0  0
  4  5  2  0  0  0  0
  4 23  1  0  0  0  0
  5  6  1  0  0  0  0
  5 24  1  0  0  0  0
  6  7  1  0  0  0  0
  6 18  2  0  0  0  0
  7  8  1  0  0  0  0
  7 17  1  0  0  0  0
  7 25  1  0  0  0  0
  8  9  1  0  0  0  0
  8 26  1  0  0  0  0
  8 27  1  0  0  0  0
  9 10  1  0  0  0  0
 10 11  1  0  0  0  0
 10 16  2  0  0  0  0
 11 12  2  0  0  0  0
 11 28  1  0  0  0  0
 12 13  1  0  0  0  0
 12 14  1  0  0  0  0
 13 29  1  0  0  0  0
 14 15  2  0  0  0  0
 14 30  1  0  0  0  0
 15 16  1  0  0  0  0
 15 31  1  0  0  0  0
 16 17  1  0  0  0  0
 17 32  1  0  0  0  0
 17 33  1  0  0  0  0
 18 19  1  0  0  0  0
 18 34  1  0  0  0  0
 19 35  1  0  0  0  0
M  END
>  <Line_Number>
35


> <IC50>
358000

$$$$
