932.0
 OpenBabel09302502333D

 32 34  0  0  1  0  0  0  0  0999 V2000
    2.3826    1.6171    0.4052 O   0  0  0  0  0  0  0  0  0  0  0  0
    1.8548    0.5147    0.3078 C   0  0  0  0  0  0  0  0  0  0  0  0
    2.6882   -0.7336    0.4029 C   0  0  0  0  0  0  0  0  0  0  0  0
    2.0707   -1.8205   -0.4624 C   0  0  3  0  0  0  0  0  0  0  0  0
    2.1214   -1.6482   -1.9801 C   0  0  0  0  0  0  0  0  0  0  0  0
    2.7496   -0.5594   -2.6096 C   0  0  0  0  0  0  0  0  0  0  0  0
    2.8011   -0.4622   -4.0036 C   0  0  0  0  0  0  0  0  0  0  0  0
    2.2312   -1.4604   -4.7823 C   0  0  0  0  0  0  0  0  0  0  0  0
    2.2734   -1.4082   -6.1438 O   0  0  0  0  0  0  0  0  0  0  0  0
    1.6044   -2.5471   -4.1894 C   0  0  0  0  0  0  0  0  0  0  0  0
    1.5495   -2.6417   -2.7967 C   0  0  0  0  0  0  0  0  0  0  0  0
    0.7341   -2.1043   -0.0056 O   0  0  0  0  0  0  0  0  0  0  0  0
   -0.0790   -1.0009    0.0707 C   0  0  0  0  0  0  0  0  0  0  0  0
   -1.4504   -1.2680    0.0579 C   0  0  0  0  0  0  0  0  0  0  0  0
   -2.3497   -0.2093    0.0714 C   0  0  0  0  0  0  0  0  0  0  0  0
   -3.6965   -0.4188    0.0507 O   0  0  0  0  0  0  0  0  0  0  0  0
   -1.9028    1.1073    0.0938 C   0  0  0  0  0  0  0  0  0  0  0  0
   -0.5320    1.3707    0.1407 C   0  0  0  0  0  0  0  0  0  0  0  0
   -0.1147    2.6704    0.1624 O   0  0  0  0  0  0  0  0  0  0  0  0
    0.3901    0.3161    0.1589 C   0  0  0  0  0  0  0  0  0  0  0  0
    2.7024   -1.0348    1.4570 H   0  0  0  0  0  0  0  0  0  0  0  0
    3.7157   -0.5161    0.0928 H   0  0  0  0  0  0  0  0  0  0  0  0
    2.6463   -2.7341   -0.2597 H   0  0  0  0  0  0  0  0  0  0  0  0
    3.2147    0.2412   -2.0384 H   0  0  0  0  0  0  0  0  0  0  0  0
    3.2910    0.3957   -4.4547 H   0  0  0  0  0  0  0  0  0  0  0  0
    2.7541   -0.6064   -6.4069 H   0  0  0  0  0  0  0  0  0  0  0  0
    1.1629   -3.3227   -4.8097 H   0  0  0  0  0  0  0  0  0  0  0  0
    1.0570   -3.5026   -2.3482 H   0  0  0  0  0  0  0  0  0  0  0  0
   -1.7924   -2.2975    0.0220 H   0  0  0  0  0  0  0  0  0  0  0  0
   -3.8679   -1.3756    0.0348 H   0  0  0  0  0  0  0  0  0  0  0  0
   -2.6324    1.9115    0.0877 H   0  0  0  0  0  0  0  0  0  0  0  0
   -0.8705    3.2661    0.0371 H   0  0  0  0  0  0  0  0  0  0  0  0
  1  2  2  0  0  0  0
  2  3  1  0  0  0  0
  2 20  1  0  0  0  0
  3  4  1  0  0  0  0
  3 21  1  0  0  0  0
  3 22  1  0  0  0  0
  4  5  1  0  0  0  0
  4 12  1  0  0  0  0
  4 23  1  0  0  0  0
  5  6  1  0  0  0  0
  5 11  2  0  0  0  0
  6  7  2  0  0  0  0
  6 24  1  0  0  0  0
  7  8  1  0  0  0  0
  7 25  1  0  0  0  0
  8  9  1  0  0  0  0
  8 10  2  0  0  0  0
  9 26  1  0  0  0  0
 10 11  1  0  0  0  0
 10 27  1  0  0  0  0
 11 28  1  0  0  0  0
 12 13  1  0  0  0  0
 13 14  1  0  0  0  0
 13 20  2  0  0  0  0
 14 15  2  0  0  0  0
 14 29  1  0  0  0  0
 15 16  1  0  0  0  0
 15 17  1  0  0  0  0
 16 30  1  0  0  0  0
 17 18  2  0  0  0  0
 17 31  1  0  0  0  0
 18 19  1  0  0  0  0
 18 20  1  0  0  0  0
 19 32  1  0  0  0  0
M  END
>  <Line_Number>
36


> <IC50>
328000

$$$$
