5281605.0
 OpenBabel09302502333D

 30 32  0  0  0  0  0  0  0  0999 V2000
   -2.2439    1.9998    0.0084 O   0  0  0  0  0  0  0  0  0  0  0  0
   -1.9661    0.8089   -0.0156 C   0  0  0  0  0  0  0  0  0  0  0  0
   -3.0606   -0.1737   -0.0680 C   0  0  0  0  0  0  0  0  0  0  0  0
   -2.7814   -1.4762   -0.0615 C   0  0  0  0  0  0  0  0  0  0  0  0
   -3.8617   -2.4692   -0.0949 C   0  0  0  0  0  0  0  0  0  0  0  0
   -4.3693   -2.9271   -1.3171 C   0  0  0  0  0  0  0  0  0  0  0  0
   -5.3366   -3.9357   -1.3447 C   0  0  0  0  0  0  0  0  0  0  0  0
   -5.8117   -4.4826   -0.1533 C   0  0  0  0  0  0  0  0  0  0  0  0
   -5.3412   -4.0044    1.0683 C   0  0  0  0  0  0  0  0  0  0  0  0
   -4.3774   -2.9934    1.0981 C   0  0  0  0  0  0  0  0  0  0  0  0
   -1.5055   -2.0095   -0.0013 O   0  0  0  0  0  0  0  0  0  0  0  0
   -0.4400   -1.1358    0.0065 C   0  0  0  0  0  0  0  0  0  0  0  0
    0.8355   -1.7203    0.0149 C   0  0  0  0  0  0  0  0  0  0  0  0
    1.9563   -0.8991    0.0103 C   0  0  0  0  0  0  0  0  0  0  0  0
    3.2278   -1.3992    0.0069 O   0  0  0  0  0  0  0  0  0  0  0  0
    1.8079    0.4837    0.0050 C   0  0  0  0  0  0  0  0  0  0  0  0
    2.9118    1.2965   -0.0057 O   0  0  0  0  0  0  0  0  0  0  0  0
    0.5445    1.0703    0.0047 C   0  0  0  0  0  0  0  0  0  0  0  0
    0.4777    2.4347    0.0022 O   0  0  0  0  0  0  0  0  0  0  0  0
   -0.5930    0.2599    0.0018 C   0  0  0  0  0  0  0  0  0  0  0  0
   -4.0699    0.2241   -0.0975 H   0  0  0  0  0  0  0  0  0  0  0  0
   -3.9950   -2.5243   -2.2559 H   0  0  0  0  0  0  0  0  0  0  0  0
   -5.7045   -4.3093   -2.2971 H   0  0  0  0  0  0  0  0  0  0  0  0
   -6.5452   -5.2849   -0.1766 H   0  0  0  0  0  0  0  0  0  0  0  0
   -5.7120   -4.4290    1.9981 H   0  0  0  0  0  0  0  0  0  0  0  0
   -4.0171   -2.6359    2.0600 H   0  0  0  0  0  0  0  0  0  0  0  0
    0.9277   -2.8017    0.0200 H   0  0  0  0  0  0  0  0  0  0  0  0
    3.1799   -2.3716    0.0036 H   0  0  0  0  0  0  0  0  0  0  0  0
    3.6723    0.6795   -0.0210 H   0  0  0  0  0  0  0  0  0  0  0  0
    1.4031    2.7490    0.0131 H   0  0  0  0  0  0  0  0  0  0  0  0
  1  2  2  0  0  0  0
  2  3  1  0  0  0  0
  2 20  1  0  0  0  0
  3  4  2  0  0  0  0
  3 21  1  0  0  0  0
  4  5  1  0  0  0  0
  4 11  1  0  0  0  0
  5  6  1  0  0  0  0
  5 10  2  0  0  0  0
  6  7  2  0  0  0  0
  6 22  1  0  0  0  0
  7  8  1  0  0  0  0
  7 23  1  0  0  0  0
  8  9  2  0  0  0  0
  8 24  1  0  0  0  0
  9 10  1  0  0  0  0
  9 25  1  0  0  0  0
 10 26  1  0  0  0  0
 11 12  1  0  0  0  0
 12 13  1  0  0  0  0
 12 20  2  0  0  0  0
 13 14  2  0  0  0  0
 13 27  1  0  0  0  0
 14 15  1  0  0  0  0
 14 16  1  0  0  0  0
 15 28  1  0  0  0  0
 16 17  1  0  0  0  0
 16 18  2  0  0  0  0
 17 29  1  0  0  0  0
 18 19  1  0  0  0  0
 18 20  1  0  0  0  0
 19 30  1  0  0  0  0
M  END
>  <Line_Number>
37


> <IC50>
291000

$$$$
