4551278.0
 OpenBabel09302502333D

 38 40  0  0  1  0  0  0  0  0999 V2000
    3.2431    1.2914   -0.1074 C   0  0  0  0  0  0  0  0  0  0  0  0
    3.0519    0.7692    1.2032 O   0  0  0  0  0  0  0  0  0  0  0  0
    3.7866   -0.3351    1.5388 C   0  0  0  0  0  0  0  0  0  0  0  0
    4.6020   -1.0650    0.6762 C   0  0  0  0  0  0  0  0  0  0  0  0
    5.3396   -2.1559    1.1533 C   0  0  0  0  0  0  0  0  0  0  0  0
    5.2743   -2.5413    2.4997 C   0  0  0  0  0  0  0  0  0  0  0  0
    6.1286   -3.7043    2.9925 C   0  0  3  0  0  0  0  0  0  0  0  0
    7.0408   -3.3157    4.1720 C   0  0  0  0  0  0  0  0  0  0  0  0
    7.4623   -4.3396    5.0776 O   0  0  0  0  0  0  0  0  0  0  0  0
    7.1731   -5.6332    4.7678 C   0  0  0  0  0  0  0  0  0  0  0  0
    7.9483   -6.5999    5.4209 C   0  0  0  0  0  0  0  0  0  0  0  0
    7.7182   -7.9541    5.1906 C   0  0  0  0  0  0  0  0  0  0  0  0
    8.4138   -8.9960    5.7440 O   0  0  0  0  0  0  0  0  0  0  0  0
    9.5346   -8.6616    6.5541 C   0  0  0  0  0  0  0  0  0  0  0  0
    6.6857   -8.3310    4.3293 C   0  0  0  0  0  0  0  0  0  0  0  0
    5.8989   -7.3653    3.6928 C   0  0  0  0  0  0  0  0  0  0  0  0
    6.1487   -6.0045    3.9027 C   0  0  0  0  0  0  0  0  0  0  0  0
    5.2906   -4.9497    3.2732 C   0  0  0  0  0  0  0  0  0  0  0  0
    4.4120   -1.8317    3.3484 C   0  0  0  0  0  0  0  0  0  0  0  0
    3.6816   -0.7357    2.8716 C   0  0  0  0  0  0  0  0  0  0  0  0
    2.7127    2.2466   -0.1712 H   0  0  0  0  0  0  0  0  0  0  0  0
    2.8159    0.6173   -0.8569 H   0  0  0  0  0  0  0  0  0  0  0  0
    4.3002    1.4910   -0.3139 H   0  0  0  0  0  0  0  0  0  0  0  0
    4.6900   -0.8129   -0.3748 H   0  0  0  0  0  0  0  0  0  0  0  0
    5.9738   -2.6992    0.4554 H   0  0  0  0  0  0  0  0  0  0  0  0
    6.8164   -3.9757    2.1768 H   0  0  0  0  0  0  0  0  0  0  0  0
    6.5988   -2.5276    4.7904 H   0  0  0  0  0  0  0  0  0  0  0  0
    7.9602   -2.8765    3.7621 H   0  0  0  0  0  0  0  0  0  0  0  0
    8.7235   -6.2589    6.0977 H   0  0  0  0  0  0  0  0  0  0  0  0
   10.0046   -9.5958    6.8778 H   0  0  0  0  0  0  0  0  0  0  0  0
    9.2235   -8.1181    7.4521 H   0  0  0  0  0  0  0  0  0  0  0  0
   10.2808   -8.0949    5.9868 H   0  0  0  0  0  0  0  0  0  0  0  0
    6.4895   -9.3864    4.1559 H   0  0  0  0  0  0  0  0  0  0  0  0
    5.0939   -7.6868    3.0371 H   0  0  0  0  0  0  0  0  0  0  0  0
    4.4441   -4.7369    3.9360 H   0  0  0  0  0  0  0  0  0  0  0  0
    4.8780   -5.3215    2.3260 H   0  0  0  0  0  0  0  0  0  0  0  0
    4.3022   -2.1111    4.3948 H   0  0  0  0  0  0  0  0  0  0  0  0
    3.0341   -0.1848    3.5488 H   0  0  0  0  0  0  0  0  0  0  0  0
  1  2  1  0  0  0  0
  1 21  1  0  0  0  0
  1 22  1  0  0  0  0
  1 23  1  0  0  0  0
  2  3  1  0  0  0  0
  3  4  1  0  0  0  0
  3 20  2  0  0  0  0
  4  5  2  0  0  0  0
  4 24  1  0  0  0  0
  5  6  1  0  0  0  0
  5 25  1  0  0  0  0
  6  7  1  0  0  0  0
  6 19  2  0  0  0  0
  7  8  1  0  0  0  0
  7 18  1  0  0  0  0
  7 26  1  0  0  0  0
  8  9  1  0  0  0  0
  8 27  1  0  0  0  0
  8 28  1  0  0  0  0
  9 10  1  0  0  0  0
 10 11  1  0  0  0  0
 10 17  2  0  0  0  0
 11 12  2  0  0  0  0
 11 29  1  0  0  0  0
 12 13  1  0  0  0  0
 12 15  1  0  0  0  0
 13 14  1  0  0  0  0
 14 30  1  0  0  0  0
 14 31  1  0  0  0  0
 14 32  1  0  0  0  0
 15 16  2  0  0  0  0
 15 33  1  0  0  0  0
 16 17  1  0  0  0  0
 16 34  1  0  0  0  0
 17 18  1  0  0  0  0
 18 35  1  0  0  0  0
 18 36  1  0  0  0  0
 19 20  1  0  0  0  0
 19 37  1  0  0  0  0
 20 38  1  0  0  0  0
M  END
>  <Line_Number>
38


> <IC50>
1783000

$$$$
