5280378.0
 OpenBabel09302502333D

 32 34  0  0  0  0  0  0  0  0999 V2000
    0.9429    4.9442    2.7282 C   0  0  0  0  0  0  0  0  0  0  0  0
    1.1455    3.6075    2.2745 O   0  0  0  0  0  0  0  0  0  0  0  0
    2.4243    3.1357    2.3958 C   0  0  0  0  0  0  0  0  0  0  0  0
    3.4238    3.7551    3.1364 C   0  0  0  0  0  0  0  0  0  0  0  0
    4.6405    3.1320    3.3335 C   0  0  0  0  0  0  0  0  0  0  0  0
    4.7530    1.7703    3.0723 C   0  0  0  0  0  0  0  0  0  0  0  0
    5.2454    0.9917    4.2651 C   0  0  0  0  0  0  0  0  0  0  0  0
    4.9987   -0.3248    4.3150 C   0  0  0  0  0  0  0  0  0  0  0  0
    4.2793   -0.8792    5.3674 O   0  0  0  0  0  0  0  0  0  0  0  0
    3.3441    0.0057    5.8540 C   0  0  0  0  0  0  0  0  0  0  0  0
    2.0033   -0.3218    5.7908 C   0  0  0  0  0  0  0  0  0  0  0  0
    1.0736    0.5847    6.2786 C   0  0  0  0  0  0  0  0  0  0  0  0
   -0.2571    0.2903    6.2252 O   0  0  0  0  0  0  0  0  0  0  0  0
    1.4747    1.8111    6.8202 C   0  0  0  0  0  0  0  0  0  0  0  0
    2.8247    2.1962    6.7700 C   0  0  0  0  0  0  0  0  0  0  0  0
    3.7366    1.2893    6.2294 C   0  0  0  0  0  0  0  0  0  0  0  0
    5.0517    1.6333    5.6676 C   0  0  0  0  0  0  0  0  0  0  0  0
    5.8021    2.4916    6.1306 O   0  0  0  0  0  0  0  0  0  0  0  0
    3.8614    1.2088    2.1385 C   0  0  0  0  0  0  0  0  0  0  0  0
    2.6936    1.9106    1.7842 C   0  0  0  0  0  0  0  0  0  0  0  0
   -0.1258    5.1670    2.6892 H   0  0  0  0  0  0  0  0  0  0  0  0
    1.4681    5.6358    2.0628 H   0  0  0  0  0  0  0  0  0  0  0  0
    1.2503    5.0942    3.7701 H   0  0  0  0  0  0  0  0  0  0  0  0
    3.2669    4.6751    3.6834 H   0  0  0  0  0  0  0  0  0  0  0  0
    5.3700    3.6330    3.9799 H   0  0  0  0  0  0  0  0  0  0  0  0
    4.8902   -0.9944    3.4746 H   0  0  0  0  0  0  0  0  0  0  0  0
    1.7114   -1.2412    5.2990 H   0  0  0  0  0  0  0  0  0  0  0  0
   -0.3669   -0.5990    5.8414 H   0  0  0  0  0  0  0  0  0  0  0  0
    0.7182    2.4814    7.2270 H   0  0  0  0  0  0  0  0  0  0  0  0
    3.1134    3.1965    7.0718 H   0  0  0  0  0  0  0  0  0  0  0  0
    3.9652    0.1886    1.7788 H   0  0  0  0  0  0  0  0  0  0  0  0
    1.9594    1.4572    1.1247 H   0  0  0  0  0  0  0  0  0  0  0  0
  1  2  1  0  0  0  0
  1 21  1  0  0  0  0
  1 22  1  0  0  0  0
  1 23  1  0  0  0  0
  2  3  1  0  0  0  0
  3  4  1  0  0  0  0
  3 20  2  0  0  0  0
  4  5  2  0  0  0  0
  4 24  1  0  0  0  0
  5  6  1  0  0  0  0
  5 25  1  0  0  0  0
  6  7  1  0  0  0  0
  6 19  2  0  0  0  0
  7  8  2  0  0  0  0
  7 17  1  0  0  0  0
  8  9  1  0  0  0  0
  8 26  1  0  0  0  0
  9 10  1  0  0  0  0
 10 11  1  0  0  0  0
 10 16  2  0  0  0  0
 11 12  2  0  0  0  0
 11 27  1  0  0  0  0
 12 13  1  0  0  0  0
 12 14  1  0  0  0  0
 13 28  1  0  0  0  0
 14 15  2  0  0  0  0
 14 29  1  0  0  0  0
 15 16  1  0  0  0  0
 15 30  1  0  0  0  0
 16 17  1  0  0  0  0
 17 18  2  0  0  0  0
 19 20  1  0  0  0  0
 19 31  1  0  0  0  0
 20 32  1  0  0  0  0
M  END
>  <Line_Number>
39


> <IC50>
2003000

$$$$
