49844561.0
 OpenBabel09302502333D

 38 39  0  0  0  0  0  0  0  0999 V2000
    0.9193   -0.1629   -0.3535 C   0  0  0  0  0  0  0  0  0  0  0  0
    2.2865    0.1483   -0.1137 O   0  0  0  0  0  0  0  0  0  0  0  0
    3.0162   -0.7620    0.6044 C   0  0  0  0  0  0  0  0  0  0  0  0
    2.6651   -2.1128    0.6965 C   0  0  0  0  0  0  0  0  0  0  0  0
    3.4797   -3.0267    1.3729 C   0  0  0  0  0  0  0  0  0  0  0  0
    4.6890   -2.6249    1.9462 C   0  0  0  0  0  0  0  0  0  0  0  0
    5.5910   -3.5833    2.6961 C   0  0  0  0  0  0  0  0  0  0  0  0
    5.5982   -5.0224    2.1582 C   0  0  0  0  0  0  0  0  0  0  0  0
    6.5014   -5.9336    2.9533 C   0  0  0  0  0  0  0  0  0  0  0  0
    7.8147   -6.1931    2.5289 C   0  0  0  0  0  0  0  0  0  0  0  0
    8.6447   -7.0489    3.2609 C   0  0  0  0  0  0  0  0  0  0  0  0
    8.1582   -7.6368    4.4222 C   0  0  0  0  0  0  0  0  0  0  0  0
    8.9196   -8.4843    5.1788 O   0  0  0  0  0  0  0  0  0  0  0  0
    6.8610   -7.3753    4.8527 C   0  0  0  0  0  0  0  0  0  0  0  0
    6.3919   -7.9520    5.9980 O   0  0  0  0  0  0  0  0  0  0  0  0
    6.0294   -6.5321    4.1307 C   0  0  0  0  0  0  0  0  0  0  0  0
    5.0324   -1.2679    1.8669 C   0  0  0  0  0  0  0  0  0  0  0  0
    4.2056   -0.3330    1.2155 C   0  0  0  0  0  0  0  0  0  0  0  0
    4.7072    0.9450    1.2340 O   0  0  0  0  0  0  0  0  0  0  0  0
    3.7506    1.9986    1.2526 C   0  0  0  0  0  0  0  0  0  0  0  0
    0.4590    0.7074   -0.8308 H   0  0  0  0  0  0  0  0  0  0  0  0
    0.3883   -0.3507    0.5858 H   0  0  0  0  0  0  0  0  0  0  0  0
    0.8150   -1.0054   -1.0441 H   0  0  0  0  0  0  0  0  0  0  0  0
    1.7647   -2.5010    0.2319 H   0  0  0  0  0  0  0  0  0  0  0  0
    3.1454   -4.0592    1.4248 H   0  0  0  0  0  0  0  0  0  0  0  0
    5.2865   -3.5762    3.7502 H   0  0  0  0  0  0  0  0  0  0  0  0
    6.6199   -3.1997    2.6646 H   0  0  0  0  0  0  0  0  0  0  0  0
    5.9001   -5.0293    1.1027 H   0  0  0  0  0  0  0  0  0  0  0  0
    4.5917   -5.4569    2.1826 H   0  0  0  0  0  0  0  0  0  0  0  0
    8.1955   -5.7333    1.6190 H   0  0  0  0  0  0  0  0  0  0  0  0
    9.6533   -7.2399    2.9095 H   0  0  0  0  0  0  0  0  0  0  0  0
    9.7809   -8.5873    4.7388 H   0  0  0  0  0  0  0  0  0  0  0  0
    7.1444   -8.4813    6.3288 H   0  0  0  0  0  0  0  0  0  0  0  0
    5.0181   -6.3505    4.4841 H   0  0  0  0  0  0  0  0  0  0  0  0
    5.9519   -0.9112    2.3292 H   0  0  0  0  0  0  0  0  0  0  0  0
    4.2446    2.8879    1.6568 H   0  0  0  0  0  0  0  0  0  0  0  0
    2.8976    1.7750    1.9030 H   0  0  0  0  0  0  0  0  0  0  0  0
    3.4273    2.2453    0.2372 H   0  0  0  0  0  0  0  0  0  0  0  0
  1  2  1  0  0  0  0
  1 21  1  0  0  0  0
  1 22  1  0  0  0  0
  1 23  1  0  0  0  0
  2  3  1  0  0  0  0
  3  4  1  0  0  0  0
  3 18  2  0  0  0  0
  4  5  2  0  0  0  0
  4 24  1  0  0  0  0
  5  6  1  0  0  0  0
  5 25  1  0  0  0  0
  6  7  1  0  0  0  0
  6 17  2  0  0  0  0
  7  8  1  0  0  0  0
  7 26  1  0  0  0  0
  7 27  1  0  0  0  0
  8  9  1  0  0  0  0
  8 28  1  0  0  0  0
  8 29  1  0  0  0  0
  9 10  1  0  0  0  0
  9 16  2  0  0  0  0
 10 11  2  0  0  0  0
 10 30  1  0  0  0  0
 11 12  1  0  0  0  0
 11 31  1  0  0  0  0
 12 13  1  0  0  0  0
 12 14  2  0  0  0  0
 13 32  1  0  0  0  0
 14 15  1  0  0  0  0
 14 16  1  0  0  0  0
 15 33  1  0  0  0  0
 16 34  1  0  0  0  0
 17 18  1  0  0  0  0
 17 35  1  0  0  0  0
 18 19  1  0  0  0  0
 19 20  1  0  0  0  0
 20 36  1  0  0  0  0
 20 37  1  0  0  0  0
 20 38  1  0  0  0  0
M  END
>  <Line_Number>
3


> <IC50>
22700

$$$$
