5280445.0
 OpenBabel09302502333D

 31 33  0  0  0  0  0  0  0  0999 V2000
   -2.4100    1.6139    0.0521 O   0  0  0  0  0  0  0  0  0  0  0  0
   -1.8711    0.5207    0.0216 C   0  0  0  0  0  0  0  0  0  0  0  0
   -2.7209   -0.6766   -0.0424 C   0  0  0  0  0  0  0  0  0  0  0  0
   -2.1656   -1.8894   -0.0346 C   0  0  0  0  0  0  0  0  0  0  0  0
   -3.0070   -3.0972   -0.1320 C   0  0  0  0  0  0  0  0  0  0  0  0
   -4.2326   -3.0724   -0.8297 C   0  0  0  0  0  0  0  0  0  0  0  0
   -5.0027   -4.2277   -0.9732 C   0  0  0  0  0  0  0  0  0  0  0  0
   -4.5483   -5.4139   -0.4183 C   0  0  0  0  0  0  0  0  0  0  0  0
   -5.2415   -6.5859   -0.5370 O   0  0  0  0  0  0  0  0  0  0  0  0
   -3.3431   -5.4485    0.2803 C   0  0  0  0  0  0  0  0  0  0  0  0
   -2.8940   -6.6213    0.8156 O   0  0  0  0  0  0  0  0  0  0  0  0
   -2.5767   -4.3045    0.4303 C   0  0  0  0  0  0  0  0  0  0  0  0
   -0.8033   -2.1230    0.0546 O   0  0  0  0  0  0  0  0  0  0  0  0
    0.0413   -1.0390    0.0421 C   0  0  0  0  0  0  0  0  0  0  0  0
    1.4124   -1.3214    0.0356 C   0  0  0  0  0  0  0  0  0  0  0  0
    2.3210   -0.2687    0.0091 C   0  0  0  0  0  0  0  0  0  0  0  0
    3.6674   -0.4855   -0.0116 O   0  0  0  0  0  0  0  0  0  0  0  0
    1.8879    1.0521   -0.0024 C   0  0  0  0  0  0  0  0  0  0  0  0
    0.5200    1.3293    0.0074 C   0  0  0  0  0  0  0  0  0  0  0  0
    0.1142    2.6325   -0.0118 O   0  0  0  0  0  0  0  0  0  0  0  0
   -0.4139    0.2866    0.0279 C   0  0  0  0  0  0  0  0  0  0  0  0
   -3.7874   -0.5004   -0.0973 H   0  0  0  0  0  0  0  0  0  0  0  0
   -4.5893   -2.1503   -1.2860 H   0  0  0  0  0  0  0  0  0  0  0  0
   -5.9364   -4.1807   -1.5276 H   0  0  0  0  0  0  0  0  0  0  0  0
   -6.0539   -6.4084   -1.0418 H   0  0  0  0  0  0  0  0  0  0  0  0
   -3.5703   -7.2813    0.5684 H   0  0  0  0  0  0  0  0  0  0  0  0
   -1.6410   -4.3633    0.9799 H   0  0  0  0  0  0  0  0  0  0  0  0
    1.7472   -2.3539    0.0450 H   0  0  0  0  0  0  0  0  0  0  0  0
    3.8384   -1.4416   -0.0346 H   0  0  0  0  0  0  0  0  0  0  0  0
    2.6245    1.8500   -0.0245 H   0  0  0  0  0  0  0  0  0  0  0  0
    0.8816    3.2259   -0.0142 H   0  0  0  0  0  0  0  0  0  0  0  0
  1  2  2  0  0  0  0
  2  3  1  0  0  0  0
  2 21  1  0  0  0  0
  3  4  2  0  0  0  0
  3 22  1  0  0  0  0
  4  5  1  0  0  0  0
  4 13  1  0  0  0  0
  5  6  1  0  0  0  0
  5 12  2  0  0  0  0
  6  7  2  0  0  0  0
  6 23  1  0  0  0  0
  7  8  1  0  0  0  0
  7 24  1  0  0  0  0
  8  9  1  0  0  0  0
  8 10  2  0  0  0  0
  9 25  1  0  0  0  0
 10 11  1  0  0  0  0
 10 12  1  0  0  0  0
 11 26  1  0  0  0  0
 12 27  1  0  0  0  0
 13 14  1  0  0  0  0
 14 15  1  0  0  0  0
 14 21  2  0  0  0  0
 15 16  2  0  0  0  0
 15 28  1  0  0  0  0
 16 17  1  0  0  0  0
 16 18  1  0  0  0  0
 17 29  1  0  0  0  0
 18 19  2  0  0  0  0
 18 30  1  0  0  0  0
 19 20  1  0  0  0  0
 19 21  1  0  0  0  0
 20 31  1  0  0  0  0
M  END
>  <Line_Number>
40


> <IC50>
35400

$$$$
