270058.0
 OpenBabel09302502333D

 39 40  0  0  0  0  0  0  0  0999 V2000
    1.0203   -0.0009    0.1110 C   0  0  0  0  0  0  0  0  0  0  0  0
    2.4429    0.0155    0.1080 O   0  0  0  0  0  0  0  0  0  0  0  0
    3.0497    1.2399    0.0678 C   0  0  0  0  0  0  0  0  0  0  0  0
    2.4128    2.4636    0.0449 C   0  0  0  0  0  0  0  0  0  0  0  0
    3.1711    3.6430   -0.0146 C   0  0  0  0  0  0  0  0  0  0  0  0
    2.4724    4.8216   -0.0764 O   0  0  0  0  0  0  0  0  0  0  0  0
    4.5889    3.6354   -0.0350 C   0  0  0  0  0  0  0  0  0  0  0  0
    5.2967    4.9552   -0.1682 C   0  0  0  0  0  0  0  0  0  0  0  0
    6.2424    5.0602   -0.9479 O   0  0  0  0  0  0  0  0  0  0  0  0
    4.7964    6.2064    0.5531 C   0  0  0  0  0  0  0  0  0  0  0  0
    4.5512    6.0152    2.0448 C   0  0  0  0  0  0  0  0  0  0  0  0
    3.9839    7.2551    2.6976 C   0  0  0  0  0  0  0  0  0  0  0  0
    2.5973    7.4465    2.7819 C   0  0  0  0  0  0  0  0  0  0  0  0
    2.0741    8.5768    3.4134 C   0  0  0  0  0  0  0  0  0  0  0  0
    2.9297    9.5322    3.9576 C   0  0  0  0  0  0  0  0  0  0  0  0
    4.3095    9.3640    3.8582 C   0  0  0  0  0  0  0  0  0  0  0  0
    4.8346    8.2338    3.2276 C   0  0  0  0  0  0  0  0  0  0  0  0
    5.2334    2.3815   -0.0046 C   0  0  0  0  0  0  0  0  0  0  0  0
    6.5450    2.0065    0.0121 O   0  0  0  0  0  0  0  0  0  0  0  0
    7.6265    2.9122   -0.0217 C   0  0  0  0  0  0  0  0  0  0  0  0
    4.4388    1.2112    0.0455 C   0  0  0  0  0  0  0  0  0  0  0  0
    0.6954   -1.0451    0.1157 H   0  0  0  0  0  0  0  0  0  0  0  0
    0.6170    0.4697   -0.7921 H   0  0  0  0  0  0  0  0  0  0  0  0
    0.6258    0.4774    1.0140 H   0  0  0  0  0  0  0  0  0  0  0  0
    1.3315    2.5292    0.0568 H   0  0  0  0  0  0  0  0  0  0  0  0
    1.5164    4.6503   -0.0340 H   0  0  0  0  0  0  0  0  0  0  0  0
    3.9216    6.6046    0.0283 H   0  0  0  0  0  0  0  0  0  0  0  0
    5.5682    6.9787    0.4260 H   0  0  0  0  0  0  0  0  0  0  0  0
    5.4933    5.7437    2.5378 H   0  0  0  0  0  0  0  0  0  0  0  0
    3.8742    5.1775    2.2431 H   0  0  0  0  0  0  0  0  0  0  0  0
    1.9151    6.7114    2.3620 H   0  0  0  0  0  0  0  0  0  0  0  0
    0.9972    8.7113    3.4860 H   0  0  0  0  0  0  0  0  0  0  0  0
    2.5229   10.4074    4.4578 H   0  0  0  0  0  0  0  0  0  0  0  0
    4.9784   10.1118    4.2761 H   0  0  0  0  0  0  0  0  0  0  0  0
    5.9138    8.1184    3.1597 H   0  0  0  0  0  0  0  0  0  0  0  0
    8.5361    2.3279    0.1610 H   0  0  0  0  0  0  0  0  0  0  0  0
    7.5599    3.6593    0.7722 H   0  0  0  0  0  0  0  0  0  0  0  0
    7.7444    3.3426   -1.0181 H   0  0  0  0  0  0  0  0  0  0  0  0
    4.9407    0.2409    0.0633 H   0  0  0  0  0  0  0  0  0  0  0  0
  1  2  1  0  0  0  0
  1 22  1  0  0  0  0
  1 23  1  0  0  0  0
  1 24  1  0  0  0  0
  2  3  1  0  0  0  0
  3  4  1  0  0  0  0
  3 21  2  0  0  0  0
  4  5  2  0  0  0  0
  4 25  1  0  0  0  0
  5  6  1  0  0  0  0
  5  7  1  0  0  0  0
  6 26  1  0  0  0  0
  7  8  1  0  0  0  0
  7 18  2  0  0  0  0
  8  9  2  0  0  0  0
  8 10  1  0  0  0  0
 10 11  1  0  0  0  0
 10 27  1  0  0  0  0
 10 28  1  0  0  0  0
 11 12  1  0  0  0  0
 11 29  1  0  0  0  0
 11 30  1  0  0  0  0
 12 13  1  0  0  0  0
 12 17  2  0  0  0  0
 13 14  2  0  0  0  0
 13 31  1  0  0  0  0
 14 15  1  0  0  0  0
 14 32  1  0  0  0  0
 15 16  2  0  0  0  0
 15 33  1  0  0  0  0
 16 17  1  0  0  0  0
 16 34  1  0  0  0  0
 17 35  1  0  0  0  0
 18 19  1  0  0  0  0
 18 21  1  0  0  0  0
 19 20  1  0  0  0  0
 20 36  1  0  0  0  0
 20 37  1  0  0  0  0
 20 38  1  0  0  0  0
 21 39  1  0  0  0  0
M  END
>  <Line_Number>
41


> <IC50>
1668000

$$$$
