72197322.0
 OpenBabel09302502333D

 31 33  0  0  1  0  0  0  0  0999 V2000
    1.0299    0.0772    0.0723 O   0  0  0  0  0  0  0  0  0  0  0  0
    2.3944    0.0398    0.0564 C   0  0  0  0  0  0  0  0  0  0  0  0
    3.1361    1.2149    0.0477 C   0  0  0  0  0  0  0  0  0  0  0  0
    4.5370    1.1591    0.0298 C   0  0  0  0  0  0  0  0  0  0  0  0
    5.2184   -0.0705    0.0153 C   0  0  0  0  0  0  0  0  0  0  0  0
    4.4505   -1.2449    0.0299 C   0  0  0  0  0  0  0  0  0  0  0  0
    4.9765   -2.5155    0.0268 O   0  0  0  0  0  0  0  0  0  0  0  0
    3.0513   -1.1842    0.0501 C   0  0  0  0  0  0  0  0  0  0  0  0
    2.3380   -2.3545    0.0641 O   0  0  0  0  0  0  0  0  0  0  0  0
    6.6789   -0.0580   -0.0199 C   0  0  0  0  0  0  0  0  0  0  0  0
    7.3045    1.1227   -0.0131 C   0  0  0  0  0  0  0  0  0  0  0  0
    6.5854    2.4436    0.0388 C   0  0  3  0  0  0  0  0  0  0  0  0
    7.0095    3.2710    1.2406 C   0  0  0  0  0  0  0  0  0  0  0  0
    7.6049    4.5304    1.0653 C   0  0  0  0  0  0  0  0  0  0  0  0
    8.0031    5.2876    2.1695 C   0  0  0  0  0  0  0  0  0  0  0  0
    7.8106    4.7978    3.4598 C   0  0  0  0  0  0  0  0  0  0  0  0
    7.2138    3.5539    3.6505 C   0  0  0  0  0  0  0  0  0  0  0  0
    6.8111    2.7970    2.5491 C   0  0  0  0  0  0  0  0  0  0  0  0
    5.1506    2.3829    0.0320 O   0  0  0  0  0  0  0  0  0  0  0  0
    0.7359    1.0011    0.0673 H   0  0  0  0  0  0  0  0  0  0  0  0
    2.6480    2.1847    0.0569 H   0  0  0  0  0  0  0  0  0  0  0  0
    5.9439   -2.4626    0.0384 H   0  0  0  0  0  0  0  0  0  0  0  0
    3.0154   -3.0575    0.0573 H   0  0  0  0  0  0  0  0  0  0  0  0
    7.2549   -0.9721   -0.0537 H   0  0  0  0  0  0  0  0  0  0  0  0
    8.3909    1.1573   -0.0399 H   0  0  0  0  0  0  0  0  0  0  0  0
    6.8598    2.9849   -0.8769 H   0  0  0  0  0  0  0  0  0  0  0  0
    7.7603    4.9328    0.0670 H   0  0  0  0  0  0  0  0  0  0  0  0
    8.4611    6.2624    2.0223 H   0  0  0  0  0  0  0  0  0  0  0  0
    8.1210    5.3882    4.3176 H   0  0  0  0  0  0  0  0  0  0  0  0
    7.0580    3.1726    4.6561 H   0  0  0  0  0  0  0  0  0  0  0  0
    6.3383    1.8308    2.7144 H   0  0  0  0  0  0  0  0  0  0  0  0
  1  2  1  0  0  0  0
  1 20  1  0  0  0  0
  2  3  1  0  0  0  0
  2  8  2  0  0  0  0
  3  4  2  0  0  0  0
  3 21  1  0  0  0  0
  4  5  1  0  0  0  0
  4 19  1  0  0  0  0
  5  6  2  0  0  0  0
  5 10  1  0  0  0  0
  6  7  1  0  0  0  0
  6  8  1  0  0  0  0
  7 22  1  0  0  0  0
  8  9  1  0  0  0  0
  9 23  1  0  0  0  0
 10 11  2  0  0  0  0
 10 24  1  0  0  0  0
 11 12  1  0  0  0  0
 11 25  1  0  0  0  0
 12 13  1  0  0  0  0
 12 19  1  0  0  0  0
 12 26  1  0  0  0  0
 13 14  1  0  0  0  0
 13 18  2  0  0  0  0
 14 15  2  0  0  0  0
 14 27  1  0  0  0  0
 15 16  1  0  0  0  0
 15 28  1  0  0  0  0
 16 17  2  0  0  0  0
 16 29  1  0  0  0  0
 17 18  1  0  0  0  0
 17 30  1  0  0  0  0
 18 31  1  0  0  0  0
M  END
>  <Line_Number>
42


> <IC50>
22100

$$$$
