88881.0
 OpenBabel09302502333D

 35 37  0  0  0  0  0  0  0  0999 V2000
    1.0926   -0.2214    0.4893 C   0  0  0  0  0  0  0  0  0  0  0  0
    2.4169    0.1143    0.0848 O   0  0  0  0  0  0  0  0  0  0  0  0
    3.0180    1.1202    0.7860 C   0  0  0  0  0  0  0  0  0  0  0  0
    2.7016    1.5039    2.0844 C   0  0  0  0  0  0  0  0  0  0  0  0
    3.3670    2.5619    2.7509 C   0  0  0  0  0  0  0  0  0  0  0  0
    2.8238    2.6757    3.9982 O   0  0  0  0  0  0  0  0  0  0  0  0
    3.2939    3.5794    4.9743 C   0  0  0  0  0  0  0  0  0  0  0  0
    4.3900    3.2546    2.0726 C   0  0  0  0  0  0  0  0  0  0  0  0
    5.1653    4.4266    2.5735 C   0  0  0  0  0  0  0  0  0  0  0  0
    4.9621    5.0290    3.6157 O   0  0  0  0  0  0  0  0  0  0  0  0
    6.2712    4.9230    1.7443 C   0  0  0  0  0  0  0  0  0  0  0  0
    6.4815    4.3844    0.5438 C   0  0  0  0  0  0  0  0  0  0  0  0
    7.6018    4.8475   -0.2748 C   0  0  0  0  0  0  0  0  0  0  0  0
    8.8488    4.2213   -0.1559 C   0  0  0  0  0  0  0  0  0  0  0  0
    9.9492    4.7025   -0.8659 C   0  0  0  0  0  0  0  0  0  0  0  0
    9.8093    5.8100   -1.7012 C   0  0  0  0  0  0  0  0  0  0  0  0
    8.5682    6.4339   -1.8328 C   0  0  0  0  0  0  0  0  0  0  0  0
    7.4656    5.9549   -1.1212 C   0  0  0  0  0  0  0  0  0  0  0  0
    5.7286    3.3763   -0.0004 O   0  0  0  0  0  0  0  0  0  0  0  0
    4.7263    2.8238    0.7692 C   0  0  0  0  0  0  0  0  0  0  0  0
    4.0519    1.7729    0.1378 C   0  0  0  0  0  0  0  0  0  0  0  0
    0.6946   -0.9414   -0.2317 H   0  0  0  0  0  0  0  0  0  0  0  0
    0.4424    0.6610    0.4761 H   0  0  0  0  0  0  0  0  0  0  0  0
    1.0843   -0.7017    1.4725 H   0  0  0  0  0  0  0  0  0  0  0  0
    1.9272    0.9759    2.6370 H   0  0  0  0  0  0  0  0  0  0  0  0
    2.7526    3.3686    5.9026 H   0  0  0  0  0  0  0  0  0  0  0  0
    3.0360    4.6054    4.7014 H   0  0  0  0  0  0  0  0  0  0  0  0
    4.3542    3.4244    5.1904 H   0  0  0  0  0  0  0  0  0  0  0  0
    6.8767    5.7219    2.1534 H   0  0  0  0  0  0  0  0  0  0  0  0
    8.9723    3.3645    0.5027 H   0  0  0  0  0  0  0  0  0  0  0  0
   10.9165    4.2189   -0.7596 H   0  0  0  0  0  0  0  0  0  0  0  0
   10.6696    6.1893   -2.2471 H   0  0  0  0  0  0  0  0  0  0  0  0
    8.4615    7.2979   -2.4822 H   0  0  0  0  0  0  0  0  0  0  0  0
    6.5069    6.4583   -1.2221 H   0  0  0  0  0  0  0  0  0  0  0  0
    4.3304    1.4749   -0.8706 H   0  0  0  0  0  0  0  0  0  0  0  0
  1  2  1  0  0  0  0
  1 22  1  0  0  0  0
  1 23  1  0  0  0  0
  1 24  1  0  0  0  0
  2  3  1  0  0  0  0
  3  4  1  0  0  0  0
  3 21  2  0  0  0  0
  4  5  2  0  0  0  0
  4 25  1  0  0  0  0
  5  6  1  0  0  0  0
  5  8  1  0  0  0  0
  6  7  1  0  0  0  0
  7 26  1  0  0  0  0
  7 27  1  0  0  0  0
  7 28  1  0  0  0  0
  8  9  1  0  0  0  0
  8 20  2  0  0  0  0
  9 10  2  0  0  0  0
  9 11  1  0  0  0  0
 11 12  2  0  0  0  0
 11 29  1  0  0  0  0
 12 13  1  0  0  0  0
 12 19  1  0  0  0  0
 13 14  1  0  0  0  0
 13 18  2  0  0  0  0
 14 15  2  0  0  0  0
 14 30  1  0  0  0  0
 15 16  1  0  0  0  0
 15 31  1  0  0  0  0
 16 17  2  0  0  0  0
 16 32  1  0  0  0  0
 17 18  1  0  0  0  0
 17 33  1  0  0  0  0
 18 34  1  0  0  0  0
 19 20  1  0  0  0  0
 20 21  1  0  0  0  0
 21 35  1  0  0  0  0
M  END
>  <Line_Number>
43


> <IC50>
2185000

$$$$
