72197320.0
 OpenBabel09302502333D

 48 50  0  0  1  0  0  0  0  0999 V2000
    4.5602   -7.5380    9.1530 C   0  0  0  0  0  0  0  0  0  0  0  0
    5.1101   -6.8451    8.0421 O   0  0  0  0  0  0  0  0  0  0  0  0
    4.7289   -5.5414    7.8795 C   0  0  0  0  0  0  0  0  0  0  0  0
    3.8237   -4.8433    8.6804 C   0  0  0  0  0  0  0  0  0  0  0  0
    3.5339   -3.5026    8.4095 C   0  0  0  0  0  0  0  0  0  0  0  0
    4.1418   -2.8431    7.3257 C   0  0  0  0  0  0  0  0  0  0  0  0
    3.9045   -1.3643    7.1024 C   0  0  3  0  0  0  0  0  0  0  0  0
    4.9730   -0.5582    7.7908 C   0  0  0  0  0  0  0  0  0  0  0  0
    5.3245    0.6404    7.3062 C   0  0  0  0  0  0  0  0  0  0  0  0
    4.5162    1.1862    6.2087 C   0  0  0  0  0  0  0  0  0  0  0  0
    4.3926    2.5616    5.9242 C   0  0  0  0  0  0  0  0  0  0  0  0
    5.0072    3.5202    6.6994 O   0  0  0  0  0  0  0  0  0  0  0  0
    4.8047    3.4366    8.1117 C   0  0  0  0  0  0  0  0  0  0  0  0
    3.6964    2.9805    4.7556 C   0  0  0  0  0  0  0  0  0  0  0  0
    3.5071    4.2852    4.3748 O   0  0  0  0  0  0  0  0  0  0  0  0
    3.7440    5.3593    5.2665 C   0  0  0  0  0  0  0  0  0  0  0  0
    3.1606    2.0086    3.8635 C   0  0  0  0  0  0  0  0  0  0  0  0
    2.4539    2.2469    2.7096 O   0  0  0  0  0  0  0  0  0  0  0  0
    2.1339    3.5565    2.2854 C   0  0  0  0  0  0  0  0  0  0  0  0
    3.3078    0.6376    4.1617 C   0  0  0  0  0  0  0  0  0  0  0  0
    2.8422   -0.3916    3.3699 O   0  0  0  0  0  0  0  0  0  0  0  0
    3.0937   -0.2579    1.9714 C   0  0  0  0  0  0  0  0  0  0  0  0
    3.8951    0.2452    5.3702 C   0  0  0  0  0  0  0  0  0  0  0  0
    3.8937   -1.0980    5.6834 O   0  0  0  0  0  0  0  0  0  0  0  0
    5.0510   -3.5551    6.5316 C   0  0  0  0  0  0  0  0  0  0  0  0
    5.3340   -4.8932    6.8055 C   0  0  0  0  0  0  0  0  0  0  0  0
    4.9742   -8.5499    9.1514 H   0  0  0  0  0  0  0  0  0  0  0  0
    3.4722   -7.6217    9.0653 H   0  0  0  0  0  0  0  0  0  0  0  0
    4.8461   -7.0617   10.0968 H   0  0  0  0  0  0  0  0  0  0  0  0
    3.3315   -5.3083    9.5266 H   0  0  0  0  0  0  0  0  0  0  0  0
    2.8387   -2.9688    9.0552 H   0  0  0  0  0  0  0  0  0  0  0  0
    2.9148   -1.1014    7.5026 H   0  0  0  0  0  0  0  0  0  0  0  0
    5.4996   -0.9828    8.6392 H   0  0  0  0  0  0  0  0  0  0  0  0
    6.1634    1.1893    7.7031 H   0  0  0  0  0  0  0  0  0  0  0  0
    4.6987    4.4534    8.5013 H   0  0  0  0  0  0  0  0  0  0  0  0
    5.6963    3.0203    8.5896 H   0  0  0  0  0  0  0  0  0  0  0  0
    3.9093    2.8719    8.3932 H   0  0  0  0  0  0  0  0  0  0  0  0
    3.3515    6.2661    4.7939 H   0  0  0  0  0  0  0  0  0  0  0  0
    4.8161    5.5168    5.4086 H   0  0  0  0  0  0  0  0  0  0  0  0
    3.2098    5.2326    6.2132 H   0  0  0  0  0  0  0  0  0  0  0  0
    1.5634    3.4656    1.3552 H   0  0  0  0  0  0  0  0  0  0  0  0
    3.0329    4.1329    2.0483 H   0  0  0  0  0  0  0  0  0  0  0  0
    1.4883    4.0614    3.0097 H   0  0  0  0  0  0  0  0  0  0  0  0
    3.2924   -1.2544    1.5645 H   0  0  0  0  0  0  0  0  0  0  0  0
    3.9643    0.3681    1.7411 H   0  0  0  0  0  0  0  0  0  0  0  0
    2.1973    0.1235    1.4726 H   0  0  0  0  0  0  0  0  0  0  0  0
    5.5477   -3.0621    5.6999 H   0  0  0  0  0  0  0  0  0  0  0  0
    6.0420   -5.4254    6.1765 H   0  0  0  0  0  0  0  0  0  0  0  0
  1  2  1  0  0  0  0
  1 27  1  0  0  0  0
  1 28  1  0  0  0  0
  1 29  1  0  0  0  0
  2  3  1  0  0  0  0
  3  4  1  0  0  0  0
  3 26  2  0  0  0  0
  4  5  2  0  0  0  0
  4 30  1  0  0  0  0
  5  6  1  0  0  0  0
  5 31  1  0  0  0  0
  6  7  1  0  0  0  0
  6 25  2  0  0  0  0
  7  8  1  0  0  0  0
  7 24  1  0  0  0  0
  7 32  1  0  0  0  0
  8  9  2  0  0  0  0
  8 33  1  0  0  0  0
  9 10  1  0  0  0  0
  9 34  1  0  0  0  0
 10 11  1  0  0  0  0
 10 23  2  0  0  0  0
 11 12  1  0  0  0  0
 11 14  2  0  0  0  0
 12 13  1  0  0  0  0
 13 35  1  0  0  0  0
 13 36  1  0  0  0  0
 13 37  1  0  0  0  0
 14 15  1  0  0  0  0
 14 17  1  0  0  0  0
 15 16  1  0  0  0  0
 16 38  1  0  0  0  0
 16 39  1  0  0  0  0
 16 40  1  0  0  0  0
 17 18  1  0  0  0  0
 17 20  2  0  0  0  0
 18 19  1  0  0  0  0
 19 41  1  0  0  0  0
 19 42  1  0  0  0  0
 19 43  1  0  0  0  0
 20 21  1  0  0  0  0
 20 23  1  0  0  0  0
 21 22  1  0  0  0  0
 22 44  1  0  0  0  0
 22 45  1  0  0  0  0
 22 46  1  0  0  0  0
 23 24  1  0  0  0  0
 25 26  1  0  0  0  0
 25 47  1  0  0  0  0
 26 48  1  0  0  0  0
M  END
>  <Line_Number>
44


> <IC50>
4172000

$$$$
