5280443.0
 OpenBabel09302502333D

 30 32  0  0  0  0  0  0  0  0999 V2000
   -2.4212    1.6099    0.0413 O   0  0  0  0  0  0  0  0  0  0  0  0
   -1.8862    0.5113    0.0073 C   0  0  0  0  0  0  0  0  0  0  0  0
   -2.7347   -0.6906   -0.0523 C   0  0  0  0  0  0  0  0  0  0  0  0
   -2.1611   -1.8987   -0.0409 C   0  0  0  0  0  0  0  0  0  0  0  0
   -2.9797   -3.1131   -0.1032 C   0  0  0  0  0  0  0  0  0  0  0  0
   -3.3246   -3.6723   -1.3420 C   0  0  0  0  0  0  0  0  0  0  0  0
   -4.0840   -4.8447   -1.4023 C   0  0  0  0  0  0  0  0  0  0  0  0
   -4.4996   -5.4510   -0.2211 C   0  0  0  0  0  0  0  0  0  0  0  0
   -5.2226   -6.6065   -0.2307 O   0  0  0  0  0  0  0  0  0  0  0  0
   -4.1845   -4.8964    1.0139 C   0  0  0  0  0  0  0  0  0  0  0  0
   -3.4251   -3.7259    1.0750 C   0  0  0  0  0  0  0  0  0  0  0  0
   -0.8028   -2.1271    0.0266 O   0  0  0  0  0  0  0  0  0  0  0  0
    0.0378   -1.0377    0.0270 C   0  0  0  0  0  0  0  0  0  0  0  0
    1.4078   -1.3199    0.0294 C   0  0  0  0  0  0  0  0  0  0  0  0
    2.3185   -0.2692    0.0092 C   0  0  0  0  0  0  0  0  0  0  0  0
    3.6633   -0.4893   -0.0067 O   0  0  0  0  0  0  0  0  0  0  0  0
    1.8841    1.0515   -0.0026 C   0  0  0  0  0  0  0  0  0  0  0  0
    0.5153    1.3296    0.0021 C   0  0  0  0  0  0  0  0  0  0  0  0
    0.1127    2.6341   -0.0175 O   0  0  0  0  0  0  0  0  0  0  0  0
   -0.4196    0.2857    0.0155 C   0  0  0  0  0  0  0  0  0  0  0  0
   -3.8047   -0.5332   -0.1008 H   0  0  0  0  0  0  0  0  0  0  0  0
   -2.9988   -3.2006   -2.2665 H   0  0  0  0  0  0  0  0  0  0  0  0
   -4.3343   -5.2665   -2.3702 H   0  0  0  0  0  0  0  0  0  0  0  0
   -5.3336   -6.8983   -1.1503 H   0  0  0  0  0  0  0  0  0  0  0  0
   -4.5225   -5.3776    1.9274 H   0  0  0  0  0  0  0  0  0  0  0  0
   -3.1802   -3.3007    2.0453 H   0  0  0  0  0  0  0  0  0  0  0  0
    1.7408   -2.3533    0.0417 H   0  0  0  0  0  0  0  0  0  0  0  0
    3.8314   -1.4464   -0.0237 H   0  0  0  0  0  0  0  0  0  0  0  0
    2.6217    1.8484   -0.0206 H   0  0  0  0  0  0  0  0  0  0  0  0
    0.8823    3.2250   -0.0073 H   0  0  0  0  0  0  0  0  0  0  0  0
  1  2  2  0  0  0  0
  2  3  1  0  0  0  0
  2 20  1  0  0  0  0
  3  4  2  0  0  0  0
  3 21  1  0  0  0  0
  4  5  1  0  0  0  0
  4 12  1  0  0  0  0
  5  6  1  0  0  0  0
  5 11  2  0  0  0  0
  6  7  2  0  0  0  0
  6 22  1  0  0  0  0
  7  8  1  0  0  0  0
  7 23  1  0  0  0  0
  8  9  1  0  0  0  0
  8 10  2  0  0  0  0
  9 24  1  0  0  0  0
 10 11  1  0  0  0  0
 10 25  1  0  0  0  0
 11 26  1  0  0  0  0
 12 13  1  0  0  0  0
 13 14  1  0  0  0  0
 13 20  2  0  0  0  0
 14 15  2  0  0  0  0
 14 27  1  0  0  0  0
 15 16  1  0  0  0  0
 15 17  1  0  0  0  0
 16 28  1  0  0  0  0
 17 18  2  0  0  0  0
 17 29  1  0  0  0  0
 18 19  1  0  0  0  0
 18 20  1  0  0  0  0
 19 30  1  0  0  0  0
M  END
>  <Line_Number>
45


> <IC50>
138000

$$$$
