136419.0
 OpenBabel09302502333D

 35 37  0  0  0  0  0  0  0  0999 V2000
    0.8014   -3.7397    4.0992 C   0  0  0  0  0  0  0  0  0  0  0  0
    1.0158   -3.0914    2.8457 O   0  0  0  0  0  0  0  0  0  0  0  0
    2.3183   -3.0661    2.4296 C   0  0  0  0  0  0  0  0  0  0  0  0
    3.3054   -3.9217    2.9137 C   0  0  0  0  0  0  0  0  0  0  0  0
    4.5762   -3.9159    2.3804 C   0  0  0  0  0  0  0  0  0  0  0  0
    4.7510   -3.3582    1.1059 C   0  0  0  0  0  0  0  0  0  0  0  0
    5.3242   -4.3951    0.1611 C   0  0  0  0  0  0  0  0  0  0  0  0
    5.1337   -4.2291   -1.1570 C   0  0  0  0  0  0  0  0  0  0  0  0
    4.6095   -5.2545   -1.9206 O   0  0  0  0  0  0  0  0  0  0  0  0
    3.6350   -5.9081   -1.1847 C   0  0  0  0  0  0  0  0  0  0  0  0
    2.3280   -5.7101   -1.5498 C   0  0  0  0  0  0  0  0  0  0  0  0
    1.3285   -6.3998   -0.8813 C   0  0  0  0  0  0  0  0  0  0  0  0
    0.0172   -6.3395   -1.2882 O   0  0  0  0  0  0  0  0  0  0  0  0
   -0.2000   -5.5791   -2.4852 C   0  0  0  0  0  0  0  0  0  0  0  0
    1.6530   -7.1842    0.2535 C   0  0  0  0  0  0  0  0  0  0  0  0
    2.9825   -7.1774    0.7514 C   0  0  0  0  0  0  0  0  0  0  0  0
    3.9535   -6.4858    0.0338 C   0  0  0  0  0  0  0  0  0  0  0  0
    5.2170   -5.9031    0.5731 C   0  0  0  0  0  0  0  0  0  0  0  0
    5.9611   -6.4612    1.3562 O   0  0  0  0  0  0  0  0  0  0  0  0
    3.8667   -2.3460    0.7188 C   0  0  0  0  0  0  0  0  0  0  0  0
    2.6526   -2.1764    1.4097 C   0  0  0  0  0  0  0  0  0  0  0  0
   -0.2685   -3.7310    4.3165 H   0  0  0  0  0  0  0  0  0  0  0  0
    1.3226   -3.1882    4.8884 H   0  0  0  0  0  0  0  0  0  0  0  0
    1.1068   -4.7931    4.0933 H   0  0  0  0  0  0  0  0  0  0  0  0
    3.0957   -4.7067    3.6329 H   0  0  0  0  0  0  0  0  0  0  0  0
    5.3004   -4.6182    2.7865 H   0  0  0  0  0  0  0  0  0  0  0  0
    4.9607   -3.3128   -1.7154 H   0  0  0  0  0  0  0  0  0  0  0  0
    2.1408   -4.9633   -2.3053 H   0  0  0  0  0  0  0  0  0  0  0  0
   -1.2074   -5.7622   -2.8487 H   0  0  0  0  0  0  0  0  0  0  0  0
    0.4893   -5.8669   -3.2951 H   0  0  0  0  0  0  0  0  0  0  0  0
   -0.1081   -4.5037   -2.2746 H   0  0  0  0  0  0  0  0  0  0  0  0
    0.8765   -7.7264    0.7611 H   0  0  0  0  0  0  0  0  0  0  0  0
    3.2079   -7.6640    1.7003 H   0  0  0  0  0  0  0  0  0  0  0  0
    4.0179   -1.7644   -0.1893 H   0  0  0  0  0  0  0  0  0  0  0  0
    1.9316   -1.4246    1.0944 H   0  0  0  0  0  0  0  0  0  0  0  0
  1  2  1  0  0  0  0
  1 22  1  0  0  0  0
  1 23  1  0  0  0  0
  1 24  1  0  0  0  0
  2  3  1  0  0  0  0
  3  4  1  0  0  0  0
  3 21  2  0  0  0  0
  4  5  2  0  0  0  0
  4 25  1  0  0  0  0
  5  6  1  0  0  0  0
  5 26  1  0  0  0  0
  6  7  1  0  0  0  0
  6 20  2  0  0  0  0
  7  8  2  0  0  0  0
  7 18  1  0  0  0  0
  8  9  1  0  0  0  0
  8 27  1  0  0  0  0
  9 10  1  0  0  0  0
 10 11  1  0  0  0  0
 10 17  2  0  0  0  0
 11 12  2  0  0  0  0
 11 28  1  0  0  0  0
 12 13  1  0  0  0  0
 12 15  1  0  0  0  0
 13 14  1  0  0  0  0
 14 29  1  0  0  0  0
 14 30  1  0  0  0  0
 14 31  1  0  0  0  0
 15 16  2  0  0  0  0
 15 32  1  0  0  0  0
 16 17  1  0  0  0  0
 16 33  1  0  0  0  0
 17 18  1  0  0  0  0
 18 19  2  0  0  0  0
 20 21  1  0  0  0  0
 20 34  1  0  0  0  0
 21 35  1  0  0  0  0
M  END
>  <Line_Number>
46


> <IC50>
3527000

$$$$
