25192450.0
 OpenBabel09302502333D

 32 34  0  0  1  0  0  0  0  0999 V2000
    1.0591    0.0502   -0.0881 O   0  0  0  0  0  0  0  0  0  0  0  0
    2.4205   -0.0356   -0.0964 C   0  0  0  0  0  0  0  0  0  0  0  0
    3.0701   -1.2666   -0.0980 C   0  0  0  0  0  0  0  0  0  0  0  0
    4.4656   -1.2946   -0.1075 C   0  0  0  0  0  0  0  0  0  0  0  0
    5.1273   -2.4942   -0.1078 O   0  0  0  0  0  0  0  0  0  0  0  0
    5.2135   -0.1091   -0.1165 C   0  0  0  0  0  0  0  0  0  0  0  0
    4.5380    1.1167   -0.1123 C   0  0  0  0  0  0  0  0  0  0  0  0
    3.1420    1.1527   -0.1023 C   0  0  0  0  0  0  0  0  0  0  0  0
    5.1639    2.3309   -0.1091 O   0  0  0  0  0  0  0  0  0  0  0  0
    6.6031    2.3633   -0.1073 C   0  0  3  0  0  0  0  0  0  0  0  0
    7.0405    3.1880    1.0890 C   0  0  0  0  0  0  0  0  0  0  0  0
    6.6925    2.8116    2.4028 C   0  0  0  0  0  0  0  0  0  0  0  0
    7.0705    3.5951    3.4968 C   0  0  0  0  0  0  0  0  0  0  0  0
    7.8023    4.7546    3.2742 C   0  0  0  0  0  0  0  0  0  0  0  0
    8.1793    5.5786    4.2983 O   0  0  0  0  0  0  0  0  0  0  0  0
    8.1737    5.1170    1.9819 C   0  0  0  0  0  0  0  0  0  0  0  0
    8.9011    6.2521    1.7674 O   0  0  0  0  0  0  0  0  0  0  0  0
    7.8067    4.3447    0.8915 C   0  0  0  0  0  0  0  0  0  0  0  0
    7.3143    1.0398   -0.1379 C   0  0  0  0  0  0  0  0  0  0  0  0
    6.6701   -0.1287   -0.1347 C   0  0  0  0  0  0  0  0  0  0  0  0
    0.6814   -0.8441   -0.0991 H   0  0  0  0  0  0  0  0  0  0  0  0
    2.5009   -2.1884   -0.0921 H   0  0  0  0  0  0  0  0  0  0  0  0
    4.4810   -3.2191   -0.1172 H   0  0  0  0  0  0  0  0  0  0  0  0
    2.6206    2.1062   -0.0994 H   0  0  0  0  0  0  0  0  0  0  0  0
    6.8789    2.8951   -1.0269 H   0  0  0  0  0  0  0  0  0  0  0  0
    6.1155    1.9030    2.5711 H   0  0  0  0  0  0  0  0  0  0  0  0
    6.7807    3.2867    4.4960 H   0  0  0  0  0  0  0  0  0  0  0  0
    7.8076    5.2191    5.1220 H   0  0  0  0  0  0  0  0  0  0  0  0
    9.0159    6.6377    2.6580 H   0  0  0  0  0  0  0  0  0  0  0  0
    8.1089    4.6527   -0.1052 H   0  0  0  0  0  0  0  0  0  0  0  0
    8.3998    1.0566   -0.1555 H   0  0  0  0  0  0  0  0  0  0  0  0
    7.1960   -1.0759   -0.1446 H   0  0  0  0  0  0  0  0  0  0  0  0
  1  2  1  0  0  0  0
  1 21  1  0  0  0  0
  2  3  1  0  0  0  0
  2  8  2  0  0  0  0
  3  4  2  0  0  0  0
  3 22  1  0  0  0  0
  4  5  1  0  0  0  0
  4  6  1  0  0  0  0
  5 23  1  0  0  0  0
  6  7  2  0  0  0  0
  6 20  1  0  0  0  0
  7  8  1  0  0  0  0
  7  9  1  0  0  0  0
  8 24  1  0  0  0  0
  9 10  1  0  0  0  0
 10 11  1  0  0  0  0
 10 19  1  0  0  0  0
 10 25  1  0  0  0  0
 11 12  1  0  0  0  0
 11 18  2  0  0  0  0
 12 13  2  0  0  0  0
 12 26  1  0  0  0  0
 13 14  1  0  0  0  0
 13 27  1  0  0  0  0
 14 15  1  0  0  0  0
 14 16  2  0  0  0  0
 15 28  1  0  0  0  0
 16 17  1  0  0  0  0
 16 18  1  0  0  0  0
 17 29  1  0  0  0  0
 18 30  1  0  0  0  0
 19 20  2  0  0  0  0
 19 31  1  0  0  0  0
 20 32  1  0  0  0  0
M  END
>  <Line_Number>
47


> <IC50>
4420

$$$$
