169676.0
 OpenBabel09302502333D

 36 37  0  0  0  0  0  0  0  0999 V2000
    2.3083    0.9312   -0.6247 C   0  0  0  0  0  0  0  0  0  0  0  0
    1.9302   -0.2945   -0.0138 O   0  0  0  0  0  0  0  0  0  0  0  0
    2.8098   -1.3375   -0.0927 C   0  0  0  0  0  0  0  0  0  0  0  0
    4.0610   -1.3237   -0.7014 C   0  0  0  0  0  0  0  0  0  0  0  0
    4.8518   -2.4882   -0.7039 C   0  0  0  0  0  0  0  0  0  0  0  0
    6.0461   -2.4440   -1.3755 O   0  0  0  0  0  0  0  0  0  0  0  0
    4.4226   -3.6786   -0.0828 C   0  0  0  0  0  0  0  0  0  0  0  0
    5.3106   -4.8957   -0.0912 C   0  0  0  0  0  0  0  0  0  0  0  0
    6.5293   -4.7810   -0.0259 O   0  0  0  0  0  0  0  0  0  0  0  0
    4.6614   -6.2697   -0.0750 C   0  0  0  0  0  0  0  0  0  0  0  0
    5.4886   -7.3501   -0.7637 C   0  0  0  0  0  0  0  0  0  0  0  0
    4.7619   -8.6776   -0.7214 C   0  0  0  0  0  0  0  0  0  0  0  0
    3.8370   -9.0095   -1.7209 C   0  0  0  0  0  0  0  0  0  0  0  0
    3.1611  -10.2311   -1.6860 C   0  0  0  0  0  0  0  0  0  0  0  0
    3.3951  -11.1300   -0.6476 C   0  0  0  0  0  0  0  0  0  0  0  0
    4.2928  -10.8002    0.3662 C   0  0  0  0  0  0  0  0  0  0  0  0
    4.9695   -9.5779    0.3335 C   0  0  0  0  0  0  0  0  0  0  0  0
    3.1611   -3.6605    0.5327 C   0  0  0  0  0  0  0  0  0  0  0  0
    2.5869   -4.7060    1.2003 O   0  0  0  0  0  0  0  0  0  0  0  0
    2.3663   -2.5106    0.5147 C   0  0  0  0  0  0  0  0  0  0  0  0
    1.4821    1.6361   -0.4908 H   0  0  0  0  0  0  0  0  0  0  0  0
    2.4638    0.8044   -1.7005 H   0  0  0  0  0  0  0  0  0  0  0  0
    3.1936    1.3565   -0.1407 H   0  0  0  0  0  0  0  0  0  0  0  0
    4.4286   -0.4285   -1.1897 H   0  0  0  0  0  0  0  0  0  0  0  0
    6.2781   -1.5285   -1.5987 H   0  0  0  0  0  0  0  0  0  0  0  0
    3.6782   -6.2138   -0.5542 H   0  0  0  0  0  0  0  0  0  0  0  0
    4.5336   -6.5552    0.9754 H   0  0  0  0  0  0  0  0  0  0  0  0
    6.4694   -7.4547   -0.2829 H   0  0  0  0  0  0  0  0  0  0  0  0
    5.6933   -7.0728   -1.8049 H   0  0  0  0  0  0  0  0  0  0  0  0
    3.6385   -8.3175   -2.5360 H   0  0  0  0  0  0  0  0  0  0  0  0
    2.4543  -10.4826   -2.4726 H   0  0  0  0  0  0  0  0  0  0  0  0
    2.8778  -12.0857   -0.6283 H   0  0  0  0  0  0  0  0  0  0  0  0
    4.4687  -11.4983    1.1809 H   0  0  0  0  0  0  0  0  0  0  0  0
    5.6638   -9.3367    1.1354 H   0  0  0  0  0  0  0  0  0  0  0  0
    3.2631   -5.2162    1.6694 H   0  0  0  0  0  0  0  0  0  0  0  0
    1.3916   -2.5254    0.9947 H   0  0  0  0  0  0  0  0  0  0  0  0
  1  2  1  0  0  0  0
  1 21  1  0  0  0  0
  1 22  1  0  0  0  0
  1 23  1  0  0  0  0
  2  3  1  0  0  0  0
  3  4  1  0  0  0  0
  3 20  2  0  0  0  0
  4  5  2  0  0  0  0
  4 24  1  0  0  0  0
  5  6  1  0  0  0  0
  5  7  1  0  0  0  0
  6 25  1  0  0  0  0
  7  8  1  0  0  0  0
  7 18  2  0  0  0  0
  8  9  2  0  0  0  0
  8 10  1  0  0  0  0
 10 11  1  0  0  0  0
 10 26  1  0  0  0  0
 10 27  1  0  0  0  0
 11 12  1  0  0  0  0
 11 28  1  0  0  0  0
 11 29  1  0  0  0  0
 12 13  1  0  0  0  0
 12 17  2  0  0  0  0
 13 14  2  0  0  0  0
 13 30  1  0  0  0  0
 14 15  1  0  0  0  0
 14 31  1  0  0  0  0
 15 16  2  0  0  0  0
 15 32  1  0  0  0  0
 16 17  1  0  0  0  0
 16 33  1  0  0  0  0
 17 34  1  0  0  0  0
 18 19  1  0  0  0  0
 18 20  1  0  0  0  0
 19 35  1  0  0  0  0
 20 36  1  0  0  0  0
M  END
>  <Line_Number>
48


> <IC50>
978000

$$$$
