14284966.0
 OpenBabel09302502333D

 39 40  0  0  1  0  0  0  0  0999 V2000
    2.8744    1.4876   -0.5797 C   0  0  0  0  0  0  0  0  0  0  0  0
    2.3124    0.1890   -0.4429 O   0  0  0  0  0  0  0  0  0  0  0  0
    3.1090   -0.8670   -0.7915 C   0  0  0  0  0  0  0  0  0  0  0  0
    4.4333   -0.7916   -1.2186 C   0  0  0  0  0  0  0  0  0  0  0  0
    5.1277   -1.9545   -1.5765 C   0  0  0  0  0  0  0  0  0  0  0  0
    4.5131   -3.2147   -1.5077 C   0  0  0  0  0  0  0  0  0  0  0  0
    5.2816   -4.4620   -1.9387 C   0  0  3  0  0  0  0  0  0  0  0  0
    5.3893   -5.4757   -0.7970 C   0  0  0  0  0  0  0  0  0  0  0  0
    4.6565   -5.1498   -3.1642 C   0  0  0  0  0  0  0  0  0  0  0  0
    3.4353   -5.1746   -3.3519 O   0  0  0  0  0  0  0  0  0  0  0  0
    5.4914   -5.9504   -4.1103 C   0  0  0  0  0  0  0  0  0  0  0  0
    4.8744   -7.0743   -4.6908 C   0  0  0  0  0  0  0  0  0  0  0  0
    5.5396   -7.8654   -5.6345 C   0  0  0  0  0  0  0  0  0  0  0  0
    6.8378   -7.5428   -6.0170 C   0  0  0  0  0  0  0  0  0  0  0  0
    7.5973   -8.2144   -6.9346 O   0  0  0  0  0  0  0  0  0  0  0  0
    6.9765   -9.2995   -7.6145 C   0  0  0  0  0  0  0  0  0  0  0  0
    7.4620   -6.4318   -5.4420 C   0  0  0  0  0  0  0  0  0  0  0  0
    6.7936   -5.6340   -4.5036 C   0  0  0  0  0  0  0  0  0  0  0  0
    7.4290   -4.5231   -4.0282 O   0  0  0  0  0  0  0  0  0  0  0  0
    3.1900   -3.2794   -1.0495 C   0  0  0  0  0  0  0  0  0  0  0  0
    2.4963   -2.1172   -0.7012 C   0  0  0  0  0  0  0  0  0  0  0  0
    2.0994    2.2168   -0.3241 H   0  0  0  0  0  0  0  0  0  0  0  0
    3.1847    1.6831   -1.6118 H   0  0  0  0  0  0  0  0  0  0  0  0
    3.7072    1.6268    0.1171 H   0  0  0  0  0  0  0  0  0  0  0  0
    4.9557    0.1558   -1.2935 H   0  0  0  0  0  0  0  0  0  0  0  0
    6.1569   -1.8634   -1.9179 H   0  0  0  0  0  0  0  0  0  0  0  0
    6.2970   -4.1371   -2.1631 H   0  0  0  0  0  0  0  0  0  0  0  0
    4.4295   -5.9633   -0.5918 H   0  0  0  0  0  0  0  0  0  0  0  0
    5.7313   -4.9978    0.1281 H   0  0  0  0  0  0  0  0  0  0  0  0
    6.1052   -6.2654   -1.0515 H   0  0  0  0  0  0  0  0  0  0  0  0
    3.8526   -7.3355   -4.4166 H   0  0  0  0  0  0  0  0  0  0  0  0
    5.0086   -8.7145   -6.0533 H   0  0  0  0  0  0  0  0  0  0  0  0
    7.7057   -9.7150   -8.3169 H   0  0  0  0  0  0  0  0  0  0  0  0
    6.1112   -8.9603   -8.1940 H   0  0  0  0  0  0  0  0  0  0  0  0
    6.6979  -10.0948   -6.9156 H   0  0  0  0  0  0  0  0  0  0  0  0
    8.4741   -6.1897   -5.7587 H   0  0  0  0  0  0  0  0  0  0  0  0
    8.2984   -4.4406   -4.4572 H   0  0  0  0  0  0  0  0  0  0  0  0
    2.6720   -4.2346   -0.9921 H   0  0  0  0  0  0  0  0  0  0  0  0
    1.4629   -2.1894   -0.3722 H   0  0  0  0  0  0  0  0  0  0  0  0
  1  2  1  0  0  0  0
  1 22  1  0  0  0  0
  1 23  1  0  0  0  0
  1 24  1  0  0  0  0
  2  3  1  0  0  0  0
  3  4  1  0  0  0  0
  3 21  2  0  0  0  0
  4  5  2  0  0  0  0
  4 25  1  0  0  0  0
  5  6  1  0  0  0  0
  5 26  1  0  0  0  0
  6  7  1  0  0  0  0
  6 20  2  0  0  0  0
  7  8  1  0  0  0  0
  7  9  1  0  0  0  0
  7 27  1  0  0  0  0
  8 28  1  0  0  0  0
  8 29  1  0  0  0  0
  8 30  1  0  0  0  0
  9 10  2  0  0  0  0
  9 11  1  0  0  0  0
 11 12  1  0  0  0  0
 11 18  2  0  0  0  0
 12 13  2  0  0  0  0
 12 31  1  0  0  0  0
 13 14  1  0  0  0  0
 13 32  1  0  0  0  0
 14 15  1  0  0  0  0
 14 17  2  0  0  0  0
 15 16  1  0  0  0  0
 16 33  1  0  0  0  0
 16 34  1  0  0  0  0
 16 35  1  0  0  0  0
 17 18  1  0  0  0  0
 17 36  1  0  0  0  0
 18 19  1  0  0  0  0
 19 37  1  0  0  0  0
 20 21  1  0  0  0  0
 20 38  1  0  0  0  0
 21 39  1  0  0  0  0
M  END
>  <Line_Number>
49


> <IC50>
2178000

$$$$
