49844556.0
 OpenBabel09302502333D

 45 45  0  0  0  0  0  0  0  0999 V2000
    0.8404   -0.0055    0.0006 C   0  0  0  0  0  0  0  0  0  0  0  0
    2.3595   -0.0027    0.0106 C   0  0  0  0  0  0  0  0  0  0  0  0
    2.8960    0.9314    1.0897 C   0  0  0  0  0  0  0  0  0  0  0  0
    4.4207    0.9349    1.1006 C   0  0  0  0  0  0  0  0  0  0  0  0
    4.9497    1.8724    2.1802 C   0  0  0  0  0  0  0  0  0  0  0  0
    6.4732    1.8733    2.1881 C   0  0  0  0  0  0  0  0  0  0  0  0
    7.0029    2.8089    3.2653 C   0  0  0  0  0  0  0  0  0  0  0  0
    8.5277    2.8123    3.2757 C   0  0  0  0  0  0  0  0  0  0  0  0
    9.0410    3.7528    4.3578 C   0  0  0  0  0  0  0  0  0  0  0  0
   10.5678    3.7795    4.3959 C   0  0  0  0  0  0  0  0  0  0  0  0
   11.0410    4.7209    5.4736 C   0  0  0  0  0  0  0  0  0  0  0  0
   11.2479    6.0791    5.1652 C   0  0  0  0  0  0  0  0  0  0  0  0
   11.5931    6.9981    6.1620 C   0  0  0  0  0  0  0  0  0  0  0  0
   11.7374    6.5579    7.4699 C   0  0  0  0  0  0  0  0  0  0  0  0
   12.0562    7.4123    8.4895 O   0  0  0  0  0  0  0  0  0  0  0  0
   11.5494    5.2171    7.7831 C   0  0  0  0  0  0  0  0  0  0  0  0
   11.6893    4.7761    9.0739 O   0  0  0  0  0  0  0  0  0  0  0  0
   11.2016    4.3043    6.7939 C   0  0  0  0  0  0  0  0  0  0  0  0
   10.9989    2.9959    7.1428 O   0  0  0  0  0  0  0  0  0  0  0  0
    0.4680   -0.6782   -0.7764 H   0  0  0  0  0  0  0  0  0  0  0  0
    0.4508    0.9979   -0.1984 H   0  0  0  0  0  0  0  0  0  0  0  0
    0.4456   -0.3423    0.9644 H   0  0  0  0  0  0  0  0  0  0  0  0
    2.7289    0.3114   -0.9726 H   0  0  0  0  0  0  0  0  0  0  0  0
    2.7237   -1.0219    0.1844 H   0  0  0  0  0  0  0  0  0  0  0  0
    2.5226    0.6167    2.0719 H   0  0  0  0  0  0  0  0  0  0  0  0
    2.5277    1.9499    0.9151 H   0  0  0  0  0  0  0  0  0  0  0  0
    4.7988    1.2509    0.1206 H   0  0  0  0  0  0  0  0  0  0  0  0
    4.7934   -0.0809    1.2797 H   0  0  0  0  0  0  0  0  0  0  0  0
    4.5742    1.5580    3.1618 H   0  0  0  0  0  0  0  0  0  0  0  0
    4.5795    2.8896    2.0028 H   0  0  0  0  0  0  0  0  0  0  0  0
    6.8489    2.1888    1.2072 H   0  0  0  0  0  0  0  0  0  0  0  0
    6.8439    0.8565    2.3664 H   0  0  0  0  0  0  0  0  0  0  0  0
    6.6261    2.4955    4.2469 H   0  0  0  0  0  0  0  0  0  0  0  0
    6.6319    3.8258    3.0873 H   0  0  0  0  0  0  0  0  0  0  0  0
    8.9044    3.1295    2.2959 H   0  0  0  0  0  0  0  0  0  0  0  0
    8.9008    1.7965    3.4553 H   0  0  0  0  0  0  0  0  0  0  0  0
    8.6463    3.4373    5.3317 H   0  0  0  0  0  0  0  0  0  0  0  0
    8.6511    4.7630    4.1742 H   0  0  0  0  0  0  0  0  0  0  0  0
   10.9652    4.1020    3.4256 H   0  0  0  0  0  0  0  0  0  0  0  0
   10.9650    2.7708    4.5640 H   0  0  0  0  0  0  0  0  0  0  0  0
   11.1224    6.4273    4.1420 H   0  0  0  0  0  0  0  0  0  0  0  0
   11.7322    8.0412    5.8942 H   0  0  0  0  0  0  0  0  0  0  0  0
   12.1200    8.3092    8.1182 H   0  0  0  0  0  0  0  0  0  0  0  0
   11.9215    5.5843    9.5732 H   0  0  0  0  0  0  0  0  0  0  0  0
   11.1759    2.9702    8.1045 H   0  0  0  0  0  0  0  0  0  0  0  0
  1  2  1  0  0  0  0
  1 20  1  0  0  0  0
  1 21  1  0  0  0  0
  1 22  1  0  0  0  0
  2  3  1  0  0  0  0
  2 23  1  0  0  0  0
  2 24  1  0  0  0  0
  3  4  1  0  0  0  0
  3 25  1  0  0  0  0
  3 26  1  0  0  0  0
  4  5  1  0  0  0  0
  4 27  1  0  0  0  0
  4 28  1  0  0  0  0
  5  6  1  0  0  0  0
  5 29  1  0  0  0  0
  5 30  1  0  0  0  0
  6  7  1  0  0  0  0
  6 31  1  0  0  0  0
  6 32  1  0  0  0  0
  7  8  1  0  0  0  0
  7 33  1  0  0  0  0
  7 34  1  0  0  0  0
  8  9  1  0  0  0  0
  8 35  1  0  0  0  0
  8 36  1  0  0  0  0
  9 10  1  0  0  0  0
  9 37  1  0  0  0  0
  9 38  1  0  0  0  0
 10 11  1  0  0  0  0
 10 39  1  0  0  0  0
 10 40  1  0  0  0  0
 11 12  1  0  0  0  0
 11 18  2  0  0  0  0
 12 13  2  0  0  0  0
 12 41  1  0  0  0  0
 13 14  1  0  0  0  0
 13 42  1  0  0  0  0
 14 15  1  0  0  0  0
 14 16  2  0  0  0  0
 15 43  1  0  0  0  0
 16 17  1  0  0  0  0
 16 18  1  0  0  0  0
 17 44  1  0  0  0  0
 18 19  1  0  0  0  0
 19 45  1  0  0  0  0
M  END
>  <Line_Number>
4


> <IC50>
124000

$$$$
