10955673.0
 OpenBabel09302502333D

 30 32  0  0  1  0  0  0  0  0999 V2000
    1.0586   -0.0097   -0.0560 O   0  0  0  0  0  0  0  0  0  0  0  0
    2.4197   -0.1008   -0.0723 C   0  0  0  0  0  0  0  0  0  0  0  0
    3.0642   -1.3337   -0.0735 C   0  0  0  0  0  0  0  0  0  0  0  0
    4.4603   -1.3673   -0.0932 C   0  0  0  0  0  0  0  0  0  0  0  0
    5.1097   -2.5747   -0.0951 O   0  0  0  0  0  0  0  0  0  0  0  0
    5.2137   -0.1833   -0.1116 C   0  0  0  0  0  0  0  0  0  0  0  0
    4.5415    1.0438   -0.1087 C   0  0  0  0  0  0  0  0  0  0  0  0
    3.1456    1.0841   -0.0887 C   0  0  0  0  0  0  0  0  0  0  0  0
    5.1658    2.2602   -0.1213 O   0  0  0  0  0  0  0  0  0  0  0  0
    6.6047    2.2992   -0.0964 C   0  0  3  0  0  0  0  0  0  0  0  0
    7.0266    3.1239    1.1087 C   0  0  0  0  0  0  0  0  0  0  0  0
    6.6603    2.7351    2.4088 C   0  0  0  0  0  0  0  0  0  0  0  0
    7.0448    3.4940    3.5141 C   0  0  0  0  0  0  0  0  0  0  0  0
    7.8011    4.6499    3.3351 C   0  0  0  0  0  0  0  0  0  0  0  0
    8.1796    5.0440    2.0525 C   0  0  0  0  0  0  0  0  0  0  0  0
    7.7970    4.2851    0.9448 C   0  0  0  0  0  0  0  0  0  0  0  0
    7.3143    0.9719   -0.1324 C   0  0  0  0  0  0  0  0  0  0  0  0
    6.6712   -0.1985   -0.1364 C   0  0  0  0  0  0  0  0  0  0  0  0
    0.6773   -0.9024   -0.0582 H   0  0  0  0  0  0  0  0  0  0  0  0
    2.4903   -2.2526   -0.0603 H   0  0  0  0  0  0  0  0  0  0  0  0
    4.4551   -3.2916   -0.0795 H   0  0  0  0  0  0  0  0  0  0  0  0
    2.6290    2.0398   -0.0842 H   0  0  0  0  0  0  0  0  0  0  0  0
    6.8915    2.8374   -1.0091 H   0  0  0  0  0  0  0  0  0  0  0  0
    6.0664    1.8354    2.5610 H   0  0  0  0  0  0  0  0  0  0  0  0
    6.7494    3.1840    4.5128 H   0  0  0  0  0  0  0  0  0  0  0  0
    8.0937    5.2455    4.1955 H   0  0  0  0  0  0  0  0  0  0  0  0
    8.7702    5.9458    1.9147 H   0  0  0  0  0  0  0  0  0  0  0  0
    8.1000    4.6099   -0.0478 H   0  0  0  0  0  0  0  0  0  0  0  0
    8.3998    0.9884   -0.1502 H   0  0  0  0  0  0  0  0  0  0  0  0
    7.1972   -1.1460   -0.1525 H   0  0  0  0  0  0  0  0  0  0  0  0
  1  2  1  0  0  0  0
  1 19  1  0  0  0  0
  2  3  1  0  0  0  0
  2  8  2  0  0  0  0
  3  4  2  0  0  0  0
  3 20  1  0  0  0  0
  4  5  1  0  0  0  0
  4  6  1  0  0  0  0
  5 21  1  0  0  0  0
  6  7  2  0  0  0  0
  6 18  1  0  0  0  0
  7  8  1  0  0  0  0
  7  9  1  0  0  0  0
  8 22  1  0  0  0  0
  9 10  1  0  0  0  0
 10 11  1  0  0  0  0
 10 17  1  0  0  0  0
 10 23  1  0  0  0  0
 11 12  1  0  0  0  0
 11 16  2  0  0  0  0
 12 13  2  0  0  0  0
 12 24  1  0  0  0  0
 13 14  1  0  0  0  0
 13 25  1  0  0  0  0
 14 15  2  0  0  0  0
 14 26  1  0  0  0  0
 15 16  1  0  0  0  0
 15 27  1  0  0  0  0
 16 28  1  0  0  0  0
 17 18  2  0  0  0  0
 17 29  1  0  0  0  0
 18 30  1  0  0  0  0
M  END
>  <Line_Number>
50


> <IC50>
33200

$$$$
