5356121.0
 OpenBabel09302502333D

 37 38  0  0  0  0  0  0  0  0999 V2000
    1.0707    0.0360    0.1262 C   0  0  0  0  0  0  0  0  0  0  0  0
    2.4908    0.0819    0.1077 O   0  0  0  0  0  0  0  0  0  0  0  0
    3.0820    1.3125    0.0986 C   0  0  0  0  0  0  0  0  0  0  0  0
    2.4400    2.5402    0.1184 C   0  0  0  0  0  0  0  0  0  0  0  0
    3.1987    3.7202    0.0815 C   0  0  0  0  0  0  0  0  0  0  0  0
    2.5130    4.9108    0.0477 O   0  0  0  0  0  0  0  0  0  0  0  0
    4.6155    3.7100    0.0468 C   0  0  0  0  0  0  0  0  0  0  0  0
    5.3247    5.0170   -0.0751 C   0  0  0  0  0  0  0  0  0  0  0  0
    6.1652    5.1880   -0.9524 O   0  0  0  0  0  0  0  0  0  0  0  0
    4.9672    6.1282    0.8654 C   0  0  0  0  0  0  0  0  0  0  0  0
    5.6366    7.2906    0.7951 C   0  0  0  0  0  0  0  0  0  0  0  0
    5.3400    8.4419    1.6483 C   0  0  0  0  0  0  0  0  0  0  0  0
    5.8981    8.5163    2.9345 C   0  0  0  0  0  0  0  0  0  0  0  0
    5.6623    9.6323    3.7431 C   0  0  0  0  0  0  0  0  0  0  0  0
    4.8622   10.6750    3.2781 C   0  0  0  0  0  0  0  0  0  0  0  0
    4.2993   10.6034    2.0046 C   0  0  0  0  0  0  0  0  0  0  0  0
    4.5352    9.4884    1.1916 C   0  0  0  0  0  0  0  0  0  0  0  0
    5.2627    2.4597    0.0312 C   0  0  0  0  0  0  0  0  0  0  0  0
    6.5771    2.0947    0.0237 O   0  0  0  0  0  0  0  0  0  0  0  0
    7.6405    3.0205   -0.0520 C   0  0  0  0  0  0  0  0  0  0  0  0
    4.4732    1.2883    0.0579 C   0  0  0  0  0  0  0  0  0  0  0  0
    0.7701   -1.0163    0.1113 H   0  0  0  0  0  0  0  0  0  0  0  0
    0.6470    0.5159   -0.7621 H   0  0  0  0  0  0  0  0  0  0  0  0
    0.6767    0.4833    1.0442 H   0  0  0  0  0  0  0  0  0  0  0  0
    1.3584    2.5968    0.1460 H   0  0  0  0  0  0  0  0  0  0  0  0
    1.5553    4.7426    0.0301 H   0  0  0  0  0  0  0  0  0  0  0  0
    4.1538    5.9850    1.5645 H   0  0  0  0  0  0  0  0  0  0  0  0
    6.4509    7.4337    0.0876 H   0  0  0  0  0  0  0  0  0  0  0  0
    6.5396    7.7199    3.3037 H   0  0  0  0  0  0  0  0  0  0  0  0
    6.1093    9.6905    4.7317 H   0  0  0  0  0  0  0  0  0  0  0  0
    4.6849   11.5452    3.9053 H   0  0  0  0  0  0  0  0  0  0  0  0
    3.6814   11.4200    1.6392 H   0  0  0  0  0  0  0  0  0  0  0  0
    4.1028    9.4532    0.1976 H   0  0  0  0  0  0  0  0  0  0  0  0
    8.5684    2.4449    0.0650 H   0  0  0  0  0  0  0  0  0  0  0  0
    7.6079    3.7464    0.7608 H   0  0  0  0  0  0  0  0  0  0  0  0
    7.6960    3.4754   -1.0427 H   0  0  0  0  0  0  0  0  0  0  0  0
    4.9742    0.3198    0.0368 H   0  0  0  0  0  0  0  0  0  0  0  0
  1  2  1  0  0  0  0
  1 22  1  0  0  0  0
  1 23  1  0  0  0  0
  1 24  1  0  0  0  0
  2  3  1  0  0  0  0
  3  4  1  0  0  0  0
  3 21  2  0  0  0  0
  4  5  2  0  0  0  0
  4 25  1  0  0  0  0
  5  6  1  0  0  0  0
  5  7  1  0  0  0  0
  6 26  1  0  0  0  0
  7  8  1  0  0  0  0
  7 18  2  0  0  0  0
  8  9  2  0  0  0  0
  8 10  1  0  0  0  0
 10 11  2  0  0  0  0
 10 27  1  0  0  0  0
 11 12  1  0  0  0  0
 11 28  1  0  0  0  0
 12 13  1  0  0  0  0
 12 17  2  0  0  0  0
 13 14  2  0  0  0  0
 13 29  1  0  0  0  0
 14 15  1  0  0  0  0
 14 30  1  0  0  0  0
 15 16  2  0  0  0  0
 15 31  1  0  0  0  0
 16 17  1  0  0  0  0
 16 32  1  0  0  0  0
 17 33  1  0  0  0  0
 18 19  1  0  0  0  0
 18 21  1  0  0  0  0
 19 20  1  0  0  0  0
 20 34  1  0  0  0  0
 20 35  1  0  0  0  0
 20 36  1  0  0  0  0
 21 37  1  0  0  0  0
M  END
>  <Line_Number>
51


> <IC50>
1220000

$$$$
