5281607.0
 OpenBabel09302502333D

 29 31  0  0  0  0  0  0  0  0999 V2000
   -2.4001    1.6195    0.0080 O   0  0  0  0  0  0  0  0  0  0  0  0
   -1.8624    0.5191   -0.0250 C   0  0  0  0  0  0  0  0  0  0  0  0
   -2.7123   -0.6774   -0.0897 C   0  0  0  0  0  0  0  0  0  0  0  0
   -2.1519   -1.8844   -0.0800 C   0  0  0  0  0  0  0  0  0  0  0  0
   -2.9914   -3.0882   -0.1177 C   0  0  0  0  0  0  0  0  0  0  0  0
   -3.3922   -3.6433   -1.3384 C   0  0  0  0  0  0  0  0  0  0  0  0
   -4.0994   -4.8487   -1.3644 C   0  0  0  0  0  0  0  0  0  0  0  0
   -4.4207   -5.4976   -0.1725 C   0  0  0  0  0  0  0  0  0  0  0  0
   -4.0635   -4.9281    1.0483 C   0  0  0  0  0  0  0  0  0  0  0  0
   -3.3666   -3.7191    1.0766 C   0  0  0  0  0  0  0  0  0  0  0  0
   -0.7903   -2.1240   -0.0015 O   0  0  0  0  0  0  0  0  0  0  0  0
    0.0557   -1.0359    0.0043 C   0  0  0  0  0  0  0  0  0  0  0  0
    1.4282   -1.3115    0.0143 C   0  0  0  0  0  0  0  0  0  0  0  0
    2.3344   -0.2548    0.0032 C   0  0  0  0  0  0  0  0  0  0  0  0
    3.6814   -0.4658   -0.0041 O   0  0  0  0  0  0  0  0  0  0  0  0
    1.8965    1.0652   -0.0079 C   0  0  0  0  0  0  0  0  0  0  0  0
    0.5285    1.3377   -0.0120 C   0  0  0  0  0  0  0  0  0  0  0  0
    0.1172    2.6391   -0.0301 O   0  0  0  0  0  0  0  0  0  0  0  0
   -0.4012    0.2894   -0.0077 C   0  0  0  0  0  0  0  0  0  0  0  0
   -3.7851   -0.5125   -0.1288 H   0  0  0  0  0  0  0  0  0  0  0  0
   -3.1245   -3.1639   -2.2783 H   0  0  0  0  0  0  0  0  0  0  0  0
   -4.3768   -5.2956   -2.3159 H   0  0  0  0  0  0  0  0  0  0  0  0
   -4.9436   -6.4507   -0.1945 H   0  0  0  0  0  0  0  0  0  0  0  0
   -4.3082   -5.4350    1.9786 H   0  0  0  0  0  0  0  0  0  0  0  0
   -3.0886   -3.2907    2.0370 H   0  0  0  0  0  0  0  0  0  0  0  0
    1.7678   -2.3425    0.0243 H   0  0  0  0  0  0  0  0  0  0  0  0
    3.8571   -1.4212   -0.0293 H   0  0  0  0  0  0  0  0  0  0  0  0
    2.6301    1.8658   -0.0194 H   0  0  0  0  0  0  0  0  0  0  0  0
    0.8823    3.2353   -0.0072 H   0  0  0  0  0  0  0  0  0  0  0  0
  1  2  2  0  0  0  0
  2  3  1  0  0  0  0
  2 19  1  0  0  0  0
  3  4  2  0  0  0  0
  3 20  1  0  0  0  0
  4  5  1  0  0  0  0
  4 11  1  0  0  0  0
  5  6  1  0  0  0  0
  5 10  2  0  0  0  0
  6  7  2  0  0  0  0
  6 21  1  0  0  0  0
  7  8  1  0  0  0  0
  7 22  1  0  0  0  0
  8  9  2  0  0  0  0
  8 23  1  0  0  0  0
  9 10  1  0  0  0  0
  9 24  1  0  0  0  0
 10 25  1  0  0  0  0
 11 12  1  0  0  0  0
 12 13  1  0  0  0  0
 12 19  2  0  0  0  0
 13 14  2  0  0  0  0
 13 26  1  0  0  0  0
 14 15  1  0  0  0  0
 14 16  1  0  0  0  0
 15 27  1  0  0  0  0
 16 17  2  0  0  0  0
 16 28  1  0  0  0  0
 17 18  1  0  0  0  0
 17 19  1  0  0  0  0
 18 29  1  0  0  0  0
M  END
>  <Line_Number>
52


> <IC50>
302000

$$$$
