68077.0
 OpenBabel09302502333D

 47 49  0  0  0  0  0  0  0  0999 V2000
    2.6488    1.5030   -1.6041 C   0  0  0  0  0  0  0  0  0  0  0  0
    2.4475    0.3656   -0.7644 O   0  0  0  0  0  0  0  0  0  0  0  0
    3.0928   -0.7606   -1.2012 C   0  0  0  0  0  0  0  0  0  0  0  0
    4.2786   -0.7395   -1.9342 C   0  0  0  0  0  0  0  0  0  0  0  0
    4.8380   -1.9261   -2.4103 C   0  0  0  0  0  0  0  0  0  0  0  0
    4.2110   -3.1476   -2.1562 C   0  0  0  0  0  0  0  0  0  0  0  0
    4.6986   -4.3856   -2.7925 C   0  0  0  0  0  0  0  0  0  0  0  0
    4.5835   -5.5527   -2.1598 C   0  0  0  0  0  0  0  0  0  0  0  0
    5.0866   -6.7505   -2.8229 C   0  0  0  0  0  0  0  0  0  0  0  0
    4.6883   -7.8469   -2.4031 O   0  0  0  0  0  0  0  0  0  0  0  0
    5.9899   -6.5691   -3.9773 C   0  0  0  0  0  0  0  0  0  0  0  0
    6.8950   -7.5252   -4.4895 C   0  0  0  0  0  0  0  0  0  0  0  0
    7.2321   -8.7253   -3.9317 O   0  0  0  0  0  0  0  0  0  0  0  0
    7.3324   -8.9711   -2.5420 C   0  0  0  0  0  0  0  0  0  0  0  0
    7.5217   -7.2708   -5.7491 C   0  0  0  0  0  0  0  0  0  0  0  0
    8.4206   -8.1076   -6.3709 O   0  0  0  0  0  0  0  0  0  0  0  0
    8.8303   -9.3496   -5.8242 C   0  0  0  0  0  0  0  0  0  0  0  0
    7.2302   -6.0870   -6.4816 C   0  0  0  0  0  0  0  0  0  0  0  0
    7.7563   -5.7577   -7.7090 O   0  0  0  0  0  0  0  0  0  0  0  0
    9.0669   -6.1571   -8.0830 C   0  0  0  0  0  0  0  0  0  0  0  0
    6.3169   -5.1573   -5.9569 C   0  0  0  0  0  0  0  0  0  0  0  0
    5.8780   -4.0075   -6.5762 O   0  0  0  0  0  0  0  0  0  0  0  0
    5.7653   -4.0031   -7.9987 C   0  0  0  0  0  0  0  0  0  0  0  0
    5.8070   -5.3527   -4.6610 C   0  0  0  0  0  0  0  0  0  0  0  0
    5.1550   -4.2697   -4.0900 O   0  0  0  0  0  0  0  0  0  0  0  0
    3.0772   -3.1649   -1.3251 C   0  0  0  0  0  0  0  0  0  0  0  0
    2.5189   -1.9789   -0.8523 C   0  0  0  0  0  0  0  0  0  0  0  0
    2.0354    2.3221   -1.2172 H   0  0  0  0  0  0  0  0  0  0  0  0
    2.3296    1.2914   -2.6298 H   0  0  0  0  0  0  0  0  0  0  0  0
    3.6871    1.8433   -1.5822 H   0  0  0  0  0  0  0  0  0  0  0  0
    4.7864    0.1899   -2.1586 H   0  0  0  0  0  0  0  0  0  0  0  0
    5.7499   -1.8799   -3.0009 H   0  0  0  0  0  0  0  0  0  0  0  0
    4.1035   -5.6719   -1.1997 H   0  0  0  0  0  0  0  0  0  0  0  0
    7.9981   -9.8326   -2.4141 H   0  0  0  0  0  0  0  0  0  0  0  0
    6.3654   -9.2973   -2.1565 H   0  0  0  0  0  0  0  0  0  0  0  0
    7.7648   -8.1414   -1.9744 H   0  0  0  0  0  0  0  0  0  0  0  0
    9.5403   -9.7953   -6.5288 H   0  0  0  0  0  0  0  0  0  0  0  0
    7.9910  -10.0480   -5.7395 H   0  0  0  0  0  0  0  0  0  0  0  0
    9.3669   -9.2185   -4.8790 H   0  0  0  0  0  0  0  0  0  0  0  0
    9.3254   -5.6022   -8.9911 H   0  0  0  0  0  0  0  0  0  0  0  0
    9.0980   -7.2163   -8.3562 H   0  0  0  0  0  0  0  0  0  0  0  0
    9.8148   -5.9017   -7.3236 H   0  0  0  0  0  0  0  0  0  0  0  0
    5.0646   -3.2115   -8.2822 H   0  0  0  0  0  0  0  0  0  0  0  0
    5.3671   -4.9419   -8.4044 H   0  0  0  0  0  0  0  0  0  0  0  0
    6.7299   -3.7456   -8.4474 H   0  0  0  0  0  0  0  0  0  0  0  0
    2.5931   -4.1024   -1.0658 H   0  0  0  0  0  0  0  0  0  0  0  0
    1.6189   -2.0108   -0.2444 H   0  0  0  0  0  0  0  0  0  0  0  0
  1  2  1  0  0  0  0
  1 28  1  0  0  0  0
  1 29  1  0  0  0  0
  1 30  1  0  0  0  0
  2  3  1  0  0  0  0
  3  4  1  0  0  0  0
  3 27  2  0  0  0  0
  4  5  2  0  0  0  0
  4 31  1  0  0  0  0
  5  6  1  0  0  0  0
  5 32  1  0  0  0  0
  6  7  1  0  0  0  0
  6 26  2  0  0  0  0
  7  8  2  0  0  0  0
  7 25  1  0  0  0  0
  8  9  1  0  0  0  0
  8 33  1  0  0  0  0
  9 10  2  0  0  0  0
  9 11  1  0  0  0  0
 11 12  1  0  0  0  0
 11 24  2  0  0  0  0
 12 13  1  0  0  0  0
 12 15  2  0  0  0  0
 13 14  1  0  0  0  0
 14 34  1  0  0  0  0
 14 35  1  0  0  0  0
 14 36  1  0  0  0  0
 15 16  1  0  0  0  0
 15 18  1  0  0  0  0
 16 17  1  0  0  0  0
 17 37  1  0  0  0  0
 17 38  1  0  0  0  0
 17 39  1  0  0  0  0
 18 19  1  0  0  0  0
 18 21  2  0  0  0  0
 19 20  1  0  0  0  0
 20 40  1  0  0  0  0
 20 41  1  0  0  0  0
 20 42  1  0  0  0  0
 21 22  1  0  0  0  0
 21 24  1  0  0  0  0
 22 23  1  0  0  0  0
 23 43  1  0  0  0  0
 23 44  1  0  0  0  0
 23 45  1  0  0  0  0
 24 25  1  0  0  0  0
 26 27  1  0  0  0  0
 26 46  1  0  0  0  0
 27 47  1  0  0  0  0
M  END
>  <Line_Number>
53


> <IC50>
4628000

$$$$
