15533938.0
 OpenBabel09302502333D

 39 41  0  0  1  0  0  0  0  0999 V2000
    2.6232   -0.8956    1.0683 C   0  0  0  0  0  0  0  0  0  0  0  0
    2.6698    0.0578    0.0055 O   0  0  0  0  0  0  0  0  0  0  0  0
    3.4615    1.1532    0.1999 C   0  0  0  0  0  0  0  0  0  0  0  0
    4.2401    1.4090    1.3225 C   0  0  0  0  0  0  0  0  0  0  0  0
    5.0243    2.5682    1.3876 C   0  0  0  0  0  0  0  0  0  0  0  0
    5.0435    3.5010    0.3372 C   0  0  0  0  0  0  0  0  0  0  0  0
    5.8338    4.8141    0.3920 C   0  0  3  0  0  0  0  0  0  0  0  0
    7.1544    4.7417    1.2077 C   0  0  0  0  0  0  0  0  0  0  0  0
    7.1780    5.4695    2.4550 O   0  0  0  0  0  0  0  0  0  0  0  0
    5.9737    5.4135    3.0985 C   0  0  0  0  0  0  0  0  0  0  0  0
    5.9427    4.9564    4.4066 C   0  0  0  0  0  0  0  0  0  0  0  0
    4.7061    4.7162    5.0014 C   0  0  0  0  0  0  0  0  0  0  0  0
    4.5273    4.0924    6.2088 O   0  0  0  0  0  0  0  0  0  0  0  0
    5.6661    3.4136    6.7337 C   0  0  0  0  0  0  0  0  0  0  0  0
    3.5283    5.0700    4.3320 C   0  0  0  0  0  0  0  0  0  0  0  0
    3.5719    5.5967    3.0409 C   0  0  0  0  0  0  0  0  0  0  0  0
    4.8061    5.7285    2.4015 C   0  0  0  0  0  0  0  0  0  0  0  0
    4.9450    5.9630    0.9208 C   0  0  3  0  0  0  0  0  0  0  0  0
    5.5618    7.2232    0.6459 O   0  0  0  0  0  0  0  0  0  0  0  0
    4.2387    3.2375   -0.7817 C   0  0  0  0  0  0  0  0  0  0  0  0
    3.4629    2.0754   -0.8475 C   0  0  0  0  0  0  0  0  0  0  0  0
    2.0208   -1.7443    0.7258 H   0  0  0  0  0  0  0  0  0  0  0  0
    2.1338   -0.4678    1.9461 H   0  0  0  0  0  0  0  0  0  0  0  0
    3.6186   -1.2770    1.3106 H   0  0  0  0  0  0  0  0  0  0  0  0
    4.2630    0.7362    2.1740 H   0  0  0  0  0  0  0  0  0  0  0  0
    5.6008    2.7290    2.2975 H   0  0  0  0  0  0  0  0  0  0  0  0
    6.1335    5.0377   -0.6417 H   0  0  0  0  0  0  0  0  0  0  0  0
    7.9605    5.1723    0.6051 H   0  0  0  0  0  0  0  0  0  0  0  0
    7.4660    3.7122    1.4213 H   0  0  0  0  0  0  0  0  0  0  0  0
    6.8804    4.7227    4.8958 H   0  0  0  0  0  0  0  0  0  0  0  0
    5.3385    2.8083    7.5847 H   0  0  0  0  0  0  0  0  0  0  0  0
    6.4047    4.1352    7.0956 H   0  0  0  0  0  0  0  0  0  0  0  0
    6.1111    2.7337    5.9973 H   0  0  0  0  0  0  0  0  0  0  0  0
    2.5656    4.8816    4.8007 H   0  0  0  0  0  0  0  0  0  0  0  0
    2.6476    5.8047    2.5114 H   0  0  0  0  0  0  0  0  0  0  0  0
    3.9675    5.9667    0.4265 H   0  0  0  0  0  0  0  0  0  0  0  0
    6.1721    7.4175    1.3810 H   0  0  0  0  0  0  0  0  0  0  0  0
    4.1982    3.9424   -1.6099 H   0  0  0  0  0  0  0  0  0  0  0  0
    2.8463    1.8909   -1.7241 H   0  0  0  0  0  0  0  0  0  0  0  0
  1  2  1  0  0  0  0
  1 22  1  0  0  0  0
  1 23  1  0  0  0  0
  1 24  1  0  0  0  0
  2  3  1  0  0  0  0
  3  4  1  0  0  0  0
  3 21  2  0  0  0  0
  4  5  2  0  0  0  0
  4 25  1  0  0  0  0
  5  6  1  0  0  0  0
  5 26  1  0  0  0  0
  6  7  1  0  0  0  0
  6 20  2  0  0  0  0
  7  8  1  0  0  0  0
  7 18  1  0  0  0  0
  7 27  1  0  0  0  0
  8  9  1  0  0  0  0
  8 28  1  0  0  0  0
  8 29  1  0  0  0  0
  9 10  1  0  0  0  0
 10 11  1  0  0  0  0
 10 17  2  0  0  0  0
 11 12  2  0  0  0  0
 11 30  1  0  0  0  0
 12 13  1  0  0  0  0
 12 15  1  0  0  0  0
 13 14  1  0  0  0  0
 14 31  1  0  0  0  0
 14 32  1  0  0  0  0
 14 33  1  0  0  0  0
 15 16  2  0  0  0  0
 15 34  1  0  0  0  0
 16 17  1  0  0  0  0
 16 35  1  0  0  0  0
 17 18  1  0  0  0  0
 18 19  1  0  0  0  0
 18 36  1  0  0  0  0
 19 37  1  0  0  0  0
 20 21  1  0  0  0  0
 20 38  1  0  0  0  0
 21 39  1  0  0  0  0
M  END
>  <Line_Number>
54


> <IC50>
3867000

$$$$
