66548537.0
 OpenBabel09302502333D

 51 53  0  0  1  0  0  0  0  0999 V2000
    3.0751    0.7599    0.5242 C   0  0  0  0  0  0  0  0  0  0  0  0
    2.3434    0.0561   -0.4745 O   0  0  0  0  0  0  0  0  0  0  0  0
    2.9335   -1.0829   -0.9364 C   0  0  0  0  0  0  0  0  0  0  0  0
    3.8029   -1.8911   -0.1922 C   0  0  0  0  0  0  0  0  0  0  0  0
    4.3619   -3.0288   -0.7729 C   0  0  0  0  0  0  0  0  0  0  0  0
    4.0796   -3.3758   -2.1046 C   0  0  0  0  0  0  0  0  0  0  0  0
    4.7368   -4.6011   -2.6981 C   0  0  3  0  0  0  0  0  0  0  0  0
    3.9255   -5.8589   -2.4678 C   0  0  0  0  0  0  0  0  0  0  0  0
    4.8406   -7.0245   -2.8195 C   0  0  3  0  0  0  0  0  0  0  0  0
    4.0303   -8.1945   -2.8467 O   0  0  0  0  0  0  0  0  0  0  0  0
    5.6234   -6.8043   -4.1032 C   0  0  0  0  0  0  0  0  0  0  0  0
    6.3889   -7.8080   -4.7485 C   0  0  0  0  0  0  0  0  0  0  0  0
    6.4328   -9.1067   -4.3038 O   0  0  0  0  0  0  0  0  0  0  0  0
    6.7136   -9.3995   -2.9376 C   0  0  0  0  0  0  0  0  0  0  0  0
    6.9753   -7.5482   -6.0228 C   0  0  0  0  0  0  0  0  0  0  0  0
    7.6949   -8.4430   -6.7758 O   0  0  0  0  0  0  0  0  0  0  0  0
    8.1062   -9.6945   -6.2575 C   0  0  0  0  0  0  0  0  0  0  0  0
    6.7747   -6.2944   -6.6561 C   0  0  0  0  0  0  0  0  0  0  0  0
    7.1826   -5.9855   -7.9326 O   0  0  0  0  0  0  0  0  0  0  0  0
    8.4487   -6.4412   -8.3795 C   0  0  0  0  0  0  0  0  0  0  0  0
    6.0320   -5.2974   -6.0048 C   0  0  0  0  0  0  0  0  0  0  0  0
    5.7870   -4.0408   -6.5146 O   0  0  0  0  0  0  0  0  0  0  0  0
    5.3984   -3.9826   -7.8846 C   0  0  0  0  0  0  0  0  0  0  0  0
    5.5396   -5.5314   -4.7112 C   0  0  0  0  0  0  0  0  0  0  0  0
    4.9170   -4.4553   -4.1087 O   0  0  0  0  0  0  0  0  0  0  0  0
    3.1845   -2.5824   -2.8302 C   0  0  0  0  0  0  0  0  0  0  0  0
    2.6186   -1.4454   -2.2450 C   0  0  0  0  0  0  0  0  0  0  0  0
    2.5955    1.7327    0.6683 H   0  0  0  0  0  0  0  0  0  0  0  0
    4.1084    0.9405    0.2060 H   0  0  0  0  0  0  0  0  0  0  0  0
    3.0467    0.2328    1.4833 H   0  0  0  0  0  0  0  0  0  0  0  0
    4.0426   -1.6534    0.8441 H   0  0  0  0  0  0  0  0  0  0  0  0
    5.0317   -3.6426   -0.1757 H   0  0  0  0  0  0  0  0  0  0  0  0
    5.7359   -4.6767   -2.2400 H   0  0  0  0  0  0  0  0  0  0  0  0
    3.0321   -5.8750   -3.1076 H   0  0  0  0  0  0  0  0  0  0  0  0
    3.5716   -5.9572   -1.4347 H   0  0  0  0  0  0  0  0  0  0  0  0
    5.5514   -7.1192   -1.9908 H   0  0  0  0  0  0  0  0  0  0  0  0
    4.1349   -8.6133   -3.7200 H   0  0  0  0  0  0  0  0  0  0  0  0
    7.5566  -10.0960   -2.8953 H   0  0  0  0  0  0  0  0  0  0  0  0
    5.8497   -9.9229   -2.5144 H   0  0  0  0  0  0  0  0  0  0  0  0
    6.9805   -8.5354   -2.3278 H   0  0  0  0  0  0  0  0  0  0  0  0
    8.8004  -10.1337   -6.9825 H   0  0  0  0  0  0  0  0  0  0  0  0
    7.2559  -10.3760   -6.1784 H   0  0  0  0  0  0  0  0  0  0  0  0
    8.6523   -9.5920   -5.3149 H   0  0  0  0  0  0  0  0  0  0  0  0
    8.7633   -5.7767   -9.1915 H   0  0  0  0  0  0  0  0  0  0  0  0
    8.3761   -7.4445   -8.8097 H   0  0  0  0  0  0  0  0  0  0  0  0
    9.2095   -6.3906   -7.5960 H   0  0  0  0  0  0  0  0  0  0  0  0
    4.6989   -3.1486   -8.0023 H   0  0  0  0  0  0  0  0  0  0  0  0
    4.8862   -4.8881   -8.2301 H   0  0  0  0  0  0  0  0  0  0  0  0
    6.2715   -3.7626   -8.5070 H   0  0  0  0  0  0  0  0  0  0  0  0
    2.9356   -2.8280   -3.8606 H   0  0  0  0  0  0  0  0  0  0  0  0
    1.9298   -0.8328   -2.8222 H   0  0  0  0  0  0  0  0  0  0  0  0
  1  2  1  0  0  0  0
  1 28  1  0  0  0  0
  1 29  1  0  0  0  0
  1 30  1  0  0  0  0
  2  3  1  0  0  0  0
  3  4  1  0  0  0  0
  3 27  2  0  0  0  0
  4  5  2  0  0  0  0
  4 31  1  0  0  0  0
  5  6  1  0  0  0  0
  5 32  1  0  0  0  0
  6  7  1  0  0  0  0
  6 26  2  0  0  0  0
  7  8  1  0  0  0  0
  7 25  1  0  0  0  0
  7 33  1  0  0  0  0
  8  9  1  0  0  0  0
  8 34  1  0  0  0  0
  8 35  1  0  0  0  0
  9 10  1  0  0  0  0
  9 11  1  0  0  0  0
  9 36  1  0  0  0  0
 10 37  1  0  0  0  0
 11 12  1  0  0  0  0
 11 24  2  0  0  0  0
 12 13  1  0  0  0  0
 12 15  2  0  0  0  0
 13 14  1  0  0  0  0
 14 38  1  0  0  0  0
 14 39  1  0  0  0  0
 14 40  1  0  0  0  0
 15 16  1  0  0  0  0
 15 18  1  0  0  0  0
 16 17  1  0  0  0  0
 17 41  1  0  0  0  0
 17 42  1  0  0  0  0
 17 43  1  0  0  0  0
 18 19  1  0  0  0  0
 18 21  2  0  0  0  0
 19 20  1  0  0  0  0
 20 44  1  0  0  0  0
 20 45  1  0  0  0  0
 20 46  1  0  0  0  0
 21 22  1  0  0  0  0
 21 24  1  0  0  0  0
 22 23  1  0  0  0  0
 23 47  1  0  0  0  0
 23 48  1  0  0  0  0
 23 49  1  0  0  0  0
 24 25  1  0  0  0  0
 26 27  1  0  0  0  0
 26 50  1  0  0  0  0
 27 51  1  0  0  0  0
M  END
>  <Line_Number>
55


> <IC50>
4853000

$$$$
