60164496.0
 OpenBabel09302502333D

 48 50  0  0  0  0  0  0  0  0999 V2000
    3.8447   -0.0096    1.4752 C   0  0  0  0  0  0  0  0  0  0  0  0
    3.4946    0.0435    0.0858 O   0  0  0  0  0  0  0  0  0  0  0  0
    3.8326   -1.0388   -0.6910 C   0  0  0  0  0  0  0  0  0  0  0  0
    3.9273   -2.3456   -0.2527 C   0  0  0  0  0  0  0  0  0  0  0  0
    4.2434   -3.3878   -1.1831 C   0  0  0  0  0  0  0  0  0  0  0  0
    4.5278   -3.1784   -2.5666 C   0  0  0  0  0  0  0  0  0  0  0  0
    5.0654   -4.3438   -3.4443 C   0  0  0  0  0  0  0  0  0  0  0  0
    5.3264   -5.6235   -3.0393 C   0  0  0  0  0  0  0  0  0  0  0  0
    4.8954   -6.5414   -4.2804 C   0  0  0  0  0  0  0  0  0  0  0  0
    5.7723   -6.0582   -5.4113 C   0  0  0  0  0  0  0  0  0  0  0  0
    6.8221   -6.7396   -6.0346 C   0  0  0  0  0  0  0  0  0  0  0  0
    7.3820   -7.8911   -5.5699 O   0  0  0  0  0  0  0  0  0  0  0  0
    6.6294   -8.8092   -4.8375 C   0  0  0  0  0  0  0  0  0  0  0  0
    7.5263   -6.1902   -7.1518 C   0  0  0  0  0  0  0  0  0  0  0  0
    8.5100   -6.8658   -7.8380 O   0  0  0  0  0  0  0  0  0  0  0  0
    8.4780   -8.2759   -7.9318 C   0  0  0  0  0  0  0  0  0  0  0  0
    7.2265   -4.9025   -7.6291 C   0  0  0  0  0  0  0  0  0  0  0  0
    7.9114   -4.2594   -8.6369 O   0  0  0  0  0  0  0  0  0  0  0  0
    9.0106   -4.8814   -9.2860 C   0  0  0  0  0  0  0  0  0  0  0  0
    6.2164   -4.1756   -6.9651 C   0  0  0  0  0  0  0  0  0  0  0  0
    5.6826   -2.9809   -7.4342 O   0  0  0  0  0  0  0  0  0  0  0  0
    5.6505   -2.7838   -8.8646 C   0  0  0  0  0  0  0  0  0  0  0  0
    5.6499   -4.7267   -5.7688 C   0  0  0  0  0  0  0  0  0  0  0  0
    5.0883   -3.9198   -4.7995 O   0  0  0  0  0  0  0  0  0  0  0  0
    4.1547   -1.9022   -3.0053 C   0  0  0  0  0  0  0  0  0  0  0  0
    3.8758   -0.8493   -2.0759 C   0  0  0  0  0  0  0  0  0  0  0  0
    3.6177    0.9623    1.9448 H   0  0  0  0  0  0  0  0  0  0  0  0
    4.9179   -0.1778    1.6036 H   0  0  0  0  0  0  0  0  0  0  0  0
    3.2675   -0.7637    2.0165 H   0  0  0  0  0  0  0  0  0  0  0  0
    3.7091   -2.5863    0.7854 H   0  0  0  0  0  0  0  0  0  0  0  0
    4.1940   -4.4086   -0.8018 H   0  0  0  0  0  0  0  0  0  0  0  0
    5.5444   -6.6652   -2.7499 H   0  0  0  0  0  0  0  0  0  0  0  0
    3.9095   -6.5037   -3.7332 H   0  0  0  0  0  0  0  0  0  0  0  0
    4.0256   -6.7868   -4.9463 H   0  0  0  0  0  0  0  0  0  0  0  0
    7.2125   -9.7226   -4.7180 H   0  0  0  0  0  0  0  0  0  0  0  0
    5.7468   -9.0690   -5.4169 H   0  0  0  0  0  0  0  0  0  0  0  0
    6.4429   -8.4000   -3.8443 H   0  0  0  0  0  0  0  0  0  0  0  0
    9.2616   -8.6065   -8.6137 H   0  0  0  0  0  0  0  0  0  0  0  0
    7.5262   -8.6214   -8.3507 H   0  0  0  0  0  0  0  0  0  0  0  0
    8.7102   -8.7090   -6.9545 H   0  0  0  0  0  0  0  0  0  0  0  0
    9.3876   -4.2185  -10.0702 H   0  0  0  0  0  0  0  0  0  0  0  0
    8.6919   -5.8002   -9.7884 H   0  0  0  0  0  0  0  0  0  0  0  0
    9.8323   -5.0377   -8.5798 H   0  0  0  0  0  0  0  0  0  0  0  0
    5.0397   -1.9119   -9.1281 H   0  0  0  0  0  0  0  0  0  0  0  0
    5.2106   -3.6345   -9.4075 H   0  0  0  0  0  0  0  0  0  0  0  0
    6.6555   -2.5510   -9.2315 H   0  0  0  0  0  0  0  0  0  0  0  0
    3.9751   -1.7018   -4.0608 H   0  0  0  0  0  0  0  0  0  0  0  0
    3.6602    0.1461   -2.4504 H   0  0  0  0  0  0  0  0  0  0  0  0
  1  2  1  0  0  0  0
  1 27  1  0  0  0  0
  1 28  1  0  0  0  0
  1 29  1  0  0  0  0
  2  3  1  0  0  0  0
  3  4  1  0  0  0  0
  3 26  2  0  0  0  0
  4  5  2  0  0  0  0
  4 30  1  0  0  0  0
  5  6  1  0  0  0  0
  5 31  1  0  0  0  0
  6  7  1  0  0  0  0
  6 25  2  0  0  0  0
  7  8  2  3  0  0  0
  7 24  1  0  0  0  0
  8  9  1  0  0  0  0
  8 32  1  0  0  0  0
  9 10  1  0  0  0  0
  9 33  1  0  0  0  0
  9 34  1  0  0  0  0
 10 11  1  0  0  0  0
 10 23  2  0  0  0  0
 11 12  1  0  0  0  0
 11 14  2  0  0  0  0
 12 13  1  0  0  0  0
 13 35  1  0  0  0  0
 13 36  1  0  0  0  0
 13 37  1  0  0  0  0
 14 15  1  0  0  0  0
 14 17  1  0  0  0  0
 15 16  1  0  0  0  0
 16 38  1  0  0  0  0
 16 39  1  0  0  0  0
 16 40  1  0  0  0  0
 17 18  1  0  0  0  0
 17 20  2  0  0  0  0
 18 19  1  0  0  0  0
 19 41  1  0  0  0  0
 19 42  1  0  0  0  0
 19 43  1  0  0  0  0
 20 21  1  0  0  0  0
 20 23  1  0  0  0  0
 21 22  1  0  0  0  0
 22 44  1  0  0  0  0
 22 45  1  0  0  0  0
 22 46  1  0  0  0  0
 23 24  1  0  0  0  0
 25 26  1  0  0  0  0
 25 47  1  0  0  0  0
 26 48  1  0  0  0  0
M  END
>  <Line_Number>
56


> <IC50>
3791000

$$$$
