5281708.0
 OpenBabel09302502333D

 29 31  0  0  0  0  0  0  0  0999 V2000
   -2.3254    1.8628   -0.0255 O   0  0  0  0  0  0  0  0  0  0  0  0
   -1.8593    0.7294    0.0036 C   0  0  0  0  0  0  0  0  0  0  0  0
   -2.7110   -0.4887    0.0022 C   0  0  0  0  0  0  0  0  0  0  0  0
   -4.1776   -0.4115   -0.0342 C   0  0  0  0  0  0  0  0  0  0  0  0
   -4.9280   -0.3910    1.1497 C   0  0  0  0  0  0  0  0  0  0  0  0
   -6.3253   -0.3172    1.1042 C   0  0  0  0  0  0  0  0  0  0  0  0
   -6.9681   -0.2696   -0.1297 C   0  0  0  0  0  0  0  0  0  0  0  0
   -8.3256   -0.1882   -0.2238 O   0  0  0  0  0  0  0  0  0  0  0  0
   -6.2399   -0.3002   -1.3114 C   0  0  0  0  0  0  0  0  0  0  0  0
   -4.8451   -0.3701   -1.2667 C   0  0  0  0  0  0  0  0  0  0  0  0
   -2.0920   -1.6785    0.0042 C   0  0  0  0  0  0  0  0  0  0  0  0
   -0.7344   -1.8958    0.0015 O   0  0  0  0  0  0  0  0  0  0  0  0
    0.0884   -0.7962    0.0066 C   0  0  0  0  0  0  0  0  0  0  0  0
    1.4650   -1.0319   -0.0138 C   0  0  0  0  0  0  0  0  0  0  0  0
    2.3399    0.0518    0.0007 C   0  0  0  0  0  0  0  0  0  0  0  0
    3.6914   -0.1255   -0.0329 O   0  0  0  0  0  0  0  0  0  0  0  0
    1.8623    1.3584    0.0471 C   0  0  0  0  0  0  0  0  0  0  0  0
    0.4860    1.5922    0.0600 C   0  0  0  0  0  0  0  0  0  0  0  0
   -0.3997    0.5102    0.0293 C   0  0  0  0  0  0  0  0  0  0  0  0
   -4.4316   -0.4195    2.1170 H   0  0  0  0  0  0  0  0  0  0  0  0
   -6.8879   -0.2926    2.0323 H   0  0  0  0  0  0  0  0  0  0  0  0
   -8.6973   -0.1091    0.6701 H   0  0  0  0  0  0  0  0  0  0  0  0
   -6.7544   -0.2577   -2.2677 H   0  0  0  0  0  0  0  0  0  0  0  0
   -4.2863   -0.3791   -2.1991 H   0  0  0  0  0  0  0  0  0  0  0  0
   -2.6127   -2.6285   -0.0047 H   0  0  0  0  0  0  0  0  0  0  0  0
    1.8331   -2.0519   -0.0434 H   0  0  0  0  0  0  0  0  0  0  0  0
    3.8865   -1.0750   -0.0986 H   0  0  0  0  0  0  0  0  0  0  0  0
    2.5593    2.1926    0.0662 H   0  0  0  0  0  0  0  0  0  0  0  0
    0.1097    2.6126    0.0891 H   0  0  0  0  0  0  0  0  0  0  0  0
  1  2  2  0  0  0  0
  2  3  1  0  0  0  0
  2 19  1  0  0  0  0
  3  4  1  0  0  0  0
  3 11  2  0  0  0  0
  4  5  1  0  0  0  0
  4 10  2  0  0  0  0
  5  6  2  0  0  0  0
  5 20  1  0  0  0  0
  6  7  1  0  0  0  0
  6 21  1  0  0  0  0
  7  8  1  0  0  0  0
  7  9  2  0  0  0  0
  8 22  1  0  0  0  0
  9 10  1  0  0  0  0
  9 23  1  0  0  0  0
 10 24  1  0  0  0  0
 11 12  1  0  0  0  0
 11 25  1  0  0  0  0
 12 13  1  0  0  0  0
 13 14  1  0  0  0  0
 13 19  2  0  0  0  0
 14 15  2  0  0  0  0
 14 26  1  0  0  0  0
 15 16  1  0  0  0  0
 15 17  1  0  0  0  0
 16 27  1  0  0  0  0
 17 18  2  0  0  0  0
 17 28  1  0  0  0  0
 18 19  1  0  0  0  0
 18 29  1  0  0  0  0
M  END
>  <Line_Number>
57


> <IC50>
556000

$$$$
