72707600.0
 OpenBabel09302502333D

 24 24  0  0  1  0  0  0  0  0999 V2000
    2.4997   -0.7591   -0.9066 O   0  0  0  0  0  0  0  0  0  0  0  0
    2.1034   -0.0334    0.0025 C   0  0  0  0  0  0  0  0  0  0  0  0
    2.8881    1.1777    0.4859 C   0  0  0  0  0  0  0  0  0  0  0  0
    1.9856    2.3240    0.9567 C   0  0  3  0  0  0  0  0  0  0  0  0
    1.2017    1.8841    2.0776 O   0  0  0  0  0  0  0  0  0  0  0  0
    2.7196    3.5810    1.3625 C   0  0  0  0  0  0  0  0  0  0  0  0
    2.4797    4.7934    0.6987 C   0  0  0  0  0  0  0  0  0  0  0  0
    3.1041    5.9725    1.1200 C   0  0  0  0  0  0  0  0  0  0  0  0
    3.9763    5.9574    2.2082 C   0  0  0  0  0  0  0  0  0  0  0  0
    4.2256    4.7619    2.8766 C   0  0  0  0  0  0  0  0  0  0  0  0
    3.6001    3.5932    2.4507 C   0  0  0  0  0  0  0  0  0  0  0  0
    3.8094    2.4621    3.1409 F   0  0  0  0  0  0  0  0  0  0  0  0
    0.9685   -0.3198    0.7153 N   0  0  0  0  0  0  0  0  0  0  0  0
    0.1840   -1.4155    0.3085 O   0  0  0  0  0  0  0  0  0  0  0  0
    3.5127    1.5220   -0.3479 H   0  0  0  0  0  0  0  0  0  0  0  0
    3.5506    0.8289    1.2857 H   0  0  0  0  0  0  0  0  0  0  0  0
    1.2704    2.5583    0.1586 H   0  0  0  0  0  0  0  0  0  0  0  0
    1.7936    1.8622    2.8553 H   0  0  0  0  0  0  0  0  0  0  0  0
    1.7859    4.8382   -0.1389 H   0  0  0  0  0  0  0  0  0  0  0  0
    2.8977    6.9089    0.6055 H   0  0  0  0  0  0  0  0  0  0  0  0
    4.4503    6.8779    2.5404 H   0  0  0  0  0  0  0  0  0  0  0  0
    4.8876    4.7363    3.7367 H   0  0  0  0  0  0  0  0  0  0  0  0
    0.5542    0.3348    1.3824 H   0  0  0  0  0  0  0  0  0  0  0  0
    0.7136   -1.7946   -0.4242 H   0  0  0  0  0  0  0  0  0  0  0  0
  1  2  2  0  0  0  0
  2  3  1  0  0  0  0
  2 13  1  0  0  0  0
  3  4  1  0  0  0  0
  3 15  1  0  0  0  0
  3 16  1  0  0  0  0
  4  5  1  0  0  0  0
  4  6  1  0  0  0  0
  4 17  1  0  0  0  0
  5 18  1  0  0  0  0
  6  7  1  0  0  0  0
  6 11  2  0  0  0  0
  7  8  2  0  0  0  0
  7 19  1  0  0  0  0
  8  9  1  0  0  0  0
  8 20  1  0  0  0  0
  9 10  2  0  0  0  0
  9 21  1  0  0  0  0
 10 11  1  0  0  0  0
 10 22  1  0  0  0  0
 11 12  1  0  0  0  0
 13 14  1  0  0  0  0
 13 23  1  0  0  0  0
 14 24  1  0  0  0  0
M  END
>  <Line_Number>
58


> <IC50>
5600

$$$$
