72707672.0
 OpenBabel09302502333D

 24 24  0  0  1  0  0  0  0  0999 V2000
    3.4515    2.7194   -0.8316 O   0  0  0  0  0  0  0  0  0  0  0  0
    3.8399    1.7756   -0.1476 C   0  0  0  0  0  0  0  0  0  0  0  0
    2.9759    1.0487    0.8586 C   0  0  0  0  0  0  0  0  0  0  0  0
    1.9952    1.9736    1.5685 C   0  0  3  0  0  0  0  0  0  0  0  0
    1.1453    1.1667    2.3968 O   0  0  0  0  0  0  0  0  0  0  0  0
    2.6563    3.0397    2.4219 C   0  0  0  0  0  0  0  0  0  0  0  0
    2.4250    4.3943    2.1373 C   0  0  0  0  0  0  0  0  0  0  0  0
    3.0155    5.4015    2.9029 C   0  0  0  0  0  0  0  0  0  0  0  0
    3.8500    5.0740    3.9742 C   0  0  0  0  0  0  0  0  0  0  0  0
    4.5363    6.3671    4.8895 Cl  0  0  0  0  0  0  0  0  0  0  0  0
    4.0989    3.7298    4.2668 C   0  0  0  0  0  0  0  0  0  0  0  0
    5.1260    3.2395    5.5677 Cl  0  0  0  0  0  0  0  0  0  0  0  0
    3.5086    2.7219    3.4943 C   0  0  0  0  0  0  0  0  0  0  0  0
    5.0942    1.2391   -0.2687 N   0  0  0  0  0  0  0  0  0  0  0  0
    5.9470    1.7905   -1.2464 O   0  0  0  0  0  0  0  0  0  0  0  0
    3.6022    0.5123    1.5846 H   0  0  0  0  0  0  0  0  0  0  0  0
    2.4211    0.2764    0.3143 H   0  0  0  0  0  0  0  0  0  0  0  0
    1.3365    2.4437    0.8325 H   0  0  0  0  0  0  0  0  0  0  0  0
    1.6501    0.8695    3.1705 H   0  0  0  0  0  0  0  0  0  0  0  0
    1.7814    4.6785    1.3030 H   0  0  0  0  0  0  0  0  0  0  0  0
    2.8200    6.4436    2.6579 H   0  0  0  0  0  0  0  0  0  0  0  0
    3.7176    1.6835    3.7391 H   0  0  0  0  0  0  0  0  0  0  0  0
    5.4152    0.3932    0.1893 H   0  0  0  0  0  0  0  0  0  0  0  0
    5.3375    2.3492   -1.7755 H   0  0  0  0  0  0  0  0  0  0  0  0
  1  2  2  0  0  0  0
  2  3  1  0  0  0  0
  2 14  1  0  0  0  0
  3  4  1  0  0  0  0
  3 16  1  0  0  0  0
  3 17  1  0  0  0  0
  4  5  1  0  0  0  0
  4  6  1  0  0  0  0
  4 18  1  0  0  0  0
  5 19  1  0  0  0  0
  6  7  1  0  0  0  0
  6 13  2  0  0  0  0
  7  8  2  0  0  0  0
  7 20  1  0  0  0  0
  8  9  1  0  0  0  0
  8 21  1  0  0  0  0
  9 10  1  0  0  0  0
  9 11  2  0  0  0  0
 11 12  1  0  0  0  0
 11 13  1  0  0  0  0
 13 22  1  0  0  0  0
 14 15  1  0  0  0  0
 14 23  1  0  0  0  0
 15 24  1  0  0  0  0
M  END
>  <Line_Number>
59


> <IC50>
895

$$$$
