49844403.0
 OpenBabel09302502333D

 39 40  0  0  0  0  0  0  0  0999 V2000
    0.9465    0.0819    0.2719 C   0  0  0  0  0  0  0  0  0  0  0  0
    2.3411    0.1730   -0.0080 O   0  0  0  0  0  0  0  0  0  0  0  0
    3.0151   -1.0180   -0.0956 C   0  0  0  0  0  0  0  0  0  0  0  0
    2.3715   -2.2077   -0.4532 C   0  0  0  0  0  0  0  0  0  0  0  0
    3.0839   -3.4008   -0.5886 C   0  0  0  0  0  0  0  0  0  0  0  0
    4.4673   -3.4341   -0.4178 C   0  0  0  0  0  0  0  0  0  0  0  0
    5.2623   -4.7186   -0.5548 C   0  0  0  0  0  0  0  0  0  0  0  0
    4.6986   -5.7108   -1.5875 C   0  0  0  0  0  0  0  0  0  0  0  0
    5.5186   -6.9714   -1.6979 C   0  0  0  0  0  0  0  0  0  0  0  0
    6.5853   -7.0479   -2.6103 C   0  0  0  0  0  0  0  0  0  0  0  0
    7.3629   -8.2093   -2.7140 C   0  0  0  0  0  0  0  0  0  0  0  0
    7.0833   -9.2930   -1.8894 C   0  0  0  0  0  0  0  0  0  0  0  0
    7.8122  -10.4483   -1.9360 O   0  0  0  0  0  0  0  0  0  0  0  0
    6.0316   -9.2278   -0.9850 C   0  0  0  0  0  0  0  0  0  0  0  0
    5.7535  -10.2868   -0.1618 O   0  0  0  0  0  0  0  0  0  0  0  0
    5.2449   -8.0846   -0.8996 C   0  0  0  0  0  0  0  0  0  0  0  0
    4.1877   -8.0744   -0.0320 O   0  0  0  0  0  0  0  0  0  0  0  0
    5.1123   -2.2426   -0.0559 C   0  0  0  0  0  0  0  0  0  0  0  0
    4.4033   -1.0387    0.1151 C   0  0  0  0  0  0  0  0  0  0  0  0
    5.2071    0.0248    0.4465 O   0  0  0  0  0  0  0  0  0  0  0  0
    4.6256    1.0412    1.2566 C   0  0  0  0  0  0  0  0  0  0  0  0
    0.5697    1.1002    0.4341 H   0  0  0  0  0  0  0  0  0  0  0  0
    0.7680   -0.4929    1.1848 H   0  0  0  0  0  0  0  0  0  0  0  0
    0.3923   -0.3321   -0.5747 H   0  0  0  0  0  0  0  0  0  0  0  0
    1.3091   -2.2479   -0.6588 H   0  0  0  0  0  0  0  0  0  0  0  0
    2.5234   -4.2941   -0.8478 H   0  0  0  0  0  0  0  0  0  0  0  0
    5.3138   -5.1914    0.4350 H   0  0  0  0  0  0  0  0  0  0  0  0
    6.2930   -4.4688   -0.8389 H   0  0  0  0  0  0  0  0  0  0  0  0
    4.6332   -5.2296   -2.5717 H   0  0  0  0  0  0  0  0  0  0  0  0
    3.6716   -5.9958   -1.3357 H   0  0  0  0  0  0  0  0  0  0  0  0
    6.8106   -6.1993   -3.2539 H   0  0  0  0  0  0  0  0  0  0  0  0
    8.1741   -8.2408   -3.4343 H   0  0  0  0  0  0  0  0  0  0  0  0
    8.4596  -10.3677   -2.6575 H   0  0  0  0  0  0  0  0  0  0  0  0
    6.4729  -10.9253   -0.3471 H   0  0  0  0  0  0  0  0  0  0  0  0
    4.1679   -8.9800    0.3390 H   0  0  0  0  0  0  0  0  0  0  0  0
    6.1907   -2.2360    0.1070 H   0  0  0  0  0  0  0  0  0  0  0  0
    5.4447    1.6204    1.6936 H   0  0  0  0  0  0  0  0  0  0  0  0
    4.0424    0.6202    2.0814 H   0  0  0  0  0  0  0  0  0  0  0  0
    4.0329    1.7337    0.6491 H   0  0  0  0  0  0  0  0  0  0  0  0
  1  2  1  0  0  0  0
  1 22  1  0  0  0  0
  1 23  1  0  0  0  0
  1 24  1  0  0  0  0
  2  3  1  0  0  0  0
  3  4  1  0  0  0  0
  3 19  2  0  0  0  0
  4  5  2  0  0  0  0
  4 25  1  0  0  0  0
  5  6  1  0  0  0  0
  5 26  1  0  0  0  0
  6  7  1  0  0  0  0
  6 18  2  0  0  0  0
  7  8  1  0  0  0  0
  7 27  1  0  0  0  0
  7 28  1  0  0  0  0
  8  9  1  0  0  0  0
  8 29  1  0  0  0  0
  8 30  1  0  0  0  0
  9 10  1  0  0  0  0
  9 16  2  0  0  0  0
 10 11  2  0  0  0  0
 10 31  1  0  0  0  0
 11 12  1  0  0  0  0
 11 32  1  0  0  0  0
 12 13  1  0  0  0  0
 12 14  2  0  0  0  0
 13 33  1  0  0  0  0
 14 15  1  0  0  0  0
 14 16  1  0  0  0  0
 15 34  1  0  0  0  0
 16 17  1  0  0  0  0
 17 35  1  0  0  0  0
 18 19  1  0  0  0  0
 18 36  1  0  0  0  0
 19 20  1  0  0  0  0
 20 21  1  0  0  0  0
 21 37  1  0  0  0  0
 21 38  1  0  0  0  0
 21 39  1  0  0  0  0
M  END
>  <Line_Number>
5


> <IC50>
71000

$$$$
