72707671.0
 OpenBabel09302502333D

 24 24  0  0  1  0  0  0  0  0999 V2000
    5.1052   -1.5247   -0.4491 O   0  0  0  0  0  0  0  0  0  0  0  0
    3.8947   -1.3840   -0.6068 C   0  0  0  0  0  0  0  0  0  0  0  0
    2.9460   -1.0316    0.5156 C   0  0  0  0  0  0  0  0  0  0  0  0
    2.0256   -2.2164    0.8600 C   0  0  3  0  0  0  0  0  0  0  0  0
    1.2575   -2.4360   -0.3313 O   0  0  0  0  0  0  0  0  0  0  0  0
    2.6874   -3.4724    1.4427 C   0  0  0  0  0  0  0  0  0  0  0  0
    3.9041   -3.3459    2.1504 C   0  0  0  0  0  0  0  0  0  0  0  0
    4.5477   -4.4452    2.7249 C   0  0  0  0  0  0  0  0  0  0  0  0
    3.9897   -5.7107    2.6181 C   0  0  0  0  0  0  0  0  0  0  0  0
    2.7693   -5.8743    1.9648 C   0  0  0  0  0  0  0  0  0  0  0  0
    2.1329   -7.4834    1.8909 Cl  0  0  0  0  0  0  0  0  0  0  0  0
    2.1046   -4.7640    1.4031 C   0  0  0  0  0  0  0  0  0  0  0  0
    0.5365   -5.0092    0.6904 Cl  0  0  0  0  0  0  0  0  0  0  0  0
    3.2798   -1.5404   -1.8308 N   0  0  0  0  0  0  0  0  0  0  0  0
    4.0909   -2.0555   -2.8689 O   0  0  0  0  0  0  0  0  0  0  0  0
    2.3393   -0.1814    0.1724 H   0  0  0  0  0  0  0  0  0  0  0  0
    3.5176   -0.6727    1.3738 H   0  0  0  0  0  0  0  0  0  0  0  0
    1.3163   -1.8700    1.6250 H   0  0  0  0  0  0  0  0  0  0  0  0
    1.0897   -3.3919   -0.4225 H   0  0  0  0  0  0  0  0  0  0  0  0
    4.3914   -2.3808    2.2783 H   0  0  0  0  0  0  0  0  0  0  0  0
    5.4890   -4.3079    3.2530 H   0  0  0  0  0  0  0  0  0  0  0  0
    4.5027   -6.5636    3.0561 H   0  0  0  0  0  0  0  0  0  0  0  0
    2.2883   -1.7910   -1.8587 H   0  0  0  0  0  0  0  0  0  0  0  0
    4.9720   -2.1055   -2.4390 H   0  0  0  0  0  0  0  0  0  0  0  0
  1  2  2  0  0  0  0
  2  3  1  0  0  0  0
  2 14  1  0  0  0  0
  3  4  1  0  0  0  0
  3 16  1  0  0  0  0
  3 17  1  0  0  0  0
  4  5  1  0  0  0  0
  4  6  1  0  0  0  0
  4 18  1  0  0  0  0
  5 19  1  0  0  0  0
  6  7  1  0  0  0  0
  6 12  2  0  0  0  0
  7  8  2  0  0  0  0
  7 20  1  0  0  0  0
  8  9  1  0  0  0  0
  8 21  1  0  0  0  0
  9 10  2  0  0  0  0
  9 22  1  0  0  0  0
 10 11  1  0  0  0  0
 10 12  1  0  0  0  0
 12 13  1  0  0  0  0
 14 15  1  0  0  0  0
 14 23  1  0  0  0  0
 15 24  1  0  0  0  0
M  END
>  <Line_Number>
60


> <IC50>
230

$$$$
