72707668.0
 OpenBabel09302502333D

 24 24  0  0  1  0  0  0  0  0999 V2000
    3.6503    0.4326    2.8704 O   0  0  0  0  0  0  0  0  0  0  0  0
    4.0058   -0.0840    1.8165 C   0  0  0  0  0  0  0  0  0  0  0  0
    3.1254   -0.9591    0.9574 C   0  0  0  0  0  0  0  0  0  0  0  0
    2.1325   -1.7693    1.7851 C   0  0  3  0  0  0  0  0  0  0  0  0
    1.2642   -2.4600    0.8802 O   0  0  0  0  0  0  0  0  0  0  0  0
    2.7900   -2.7657    2.7238 C   0  0  0  0  0  0  0  0  0  0  0  0
    2.5508   -2.6619    4.1073 C   0  0  0  0  0  0  0  0  0  0  0  0
    3.1669   -3.5360    5.0063 C   0  0  0  0  0  0  0  0  0  0  0  0
    4.0223   -4.5188    4.5279 C   0  0  0  0  0  0  0  0  0  0  0  0
    4.6200   -5.3527    5.3890 F   0  0  0  0  0  0  0  0  0  0  0  0
    4.2704   -4.6472    3.1683 C   0  0  0  0  0  0  0  0  0  0  0  0
    3.6560   -3.7725    2.2656 C   0  0  0  0  0  0  0  0  0  0  0  0
    5.2536    0.1235    1.2835 N   0  0  0  0  0  0  0  0  0  0  0  0
    6.0978    1.0082    1.9896 O   0  0  0  0  0  0  0  0  0  0  0  0
    3.7358   -1.6140    0.3254 H   0  0  0  0  0  0  0  0  0  0  0  0
    2.5782   -0.3007    0.2717 H   0  0  0  0  0  0  0  0  0  0  0  0
    1.4920   -1.0876    2.3574 H   0  0  0  0  0  0  0  0  0  0  0  0
    1.7559   -3.1986    0.4865 H   0  0  0  0  0  0  0  0  0  0  0  0
    1.8935   -1.8876    4.4979 H   0  0  0  0  0  0  0  0  0  0  0  0
    2.9907   -3.4493    6.0737 H   0  0  0  0  0  0  0  0  0  0  0  0
    4.9430   -5.4225    2.8186 H   0  0  0  0  0  0  0  0  0  0  0  0
    3.8694   -3.8875    1.2076 H   0  0  0  0  0  0  0  0  0  0  0  0
    5.5191   -0.0955    0.3292 H   0  0  0  0  0  0  0  0  0  0  0  0
    5.5456    1.2552    2.7637 H   0  0  0  0  0  0  0  0  0  0  0  0
  1  2  2  0  0  0  0
  2  3  1  0  0  0  0
  2 13  1  0  0  0  0
  3  4  1  0  0  0  0
  3 15  1  0  0  0  0
  3 16  1  0  0  0  0
  4  5  1  0  0  0  0
  4  6  1  0  0  0  0
  4 17  1  0  0  0  0
  5 18  1  0  0  0  0
  6  7  1  0  0  0  0
  6 12  2  0  0  0  0
  7  8  2  0  0  0  0
  7 19  1  0  0  0  0
  8  9  1  0  0  0  0
  8 20  1  0  0  0  0
  9 10  1  0  0  0  0
  9 11  2  0  0  0  0
 11 12  1  0  0  0  0
 11 21  1  0  0  0  0
 12 22  1  0  0  0  0
 13 14  1  0  0  0  0
 13 23  1  0  0  0  0
 14 24  1  0  0  0  0
M  END
>  <Line_Number>
61


> <IC50>
8010

$$$$
