72707673.0
 OpenBabel09302502333D

 28 28  0  0  1  0  0  0  0  0999 V2000
    1.0315   -0.6206   -0.0117 C   0  0  0  0  0  0  0  0  0  0  0  0
    2.3496   -0.0886    0.1075 O   0  0  0  0  0  0  0  0  0  0  0  0
    3.0305   -0.4098    1.2540 C   0  0  0  0  0  0  0  0  0  0  0  0
    2.7151   -1.5137    2.0612 C   0  0  0  0  0  0  0  0  0  0  0  0
    3.4796   -1.8069    3.1931 C   0  0  0  0  0  0  0  0  0  0  0  0
    4.5605   -1.0024    3.5118 C   0  0  0  0  0  0  0  0  0  0  0  0
    5.2981   -1.2859    4.5931 F   0  0  0  0  0  0  0  0  0  0  0  0
    4.8926    0.0892    2.7191 C   0  0  0  0  0  0  0  0  0  0  0  0
    4.1354    0.4048    1.5744 C   0  0  0  0  0  0  0  0  0  0  0  0
    4.5632    1.6040    0.7477 C   0  0  3  0  0  0  0  0  0  0  0  0
    4.8944    1.1688   -0.5787 O   0  0  0  0  0  0  0  0  0  0  0  0
    3.5461    2.7361    0.6190 C   0  0  0  0  0  0  0  0  0  0  0  0
    3.1889    3.3961    1.9261 C   0  0  0  0  0  0  0  0  0  0  0  0
    3.6951    3.1409    3.0137 O   0  0  0  0  0  0  0  0  0  0  0  0
    2.2137    4.3618    1.7853 N   0  0  0  0  0  0  0  0  0  0  0  0
    1.9053    5.0930    2.9562 O   0  0  0  0  0  0  0  0  0  0  0  0
    0.5615   -0.1595   -0.8853 H   0  0  0  0  0  0  0  0  0  0  0  0
    0.4244   -0.3719    0.8660 H   0  0  0  0  0  0  0  0  0  0  0  0
    1.0569   -1.7015   -0.1823 H   0  0  0  0  0  0  0  0  0  0  0  0
    1.8918   -2.1795    1.8275 H   0  0  0  0  0  0  0  0  0  0  0  0
    3.2414   -2.6606    3.8186 H   0  0  0  0  0  0  0  0  0  0  0  0
    5.7493    0.6932    3.0080 H   0  0  0  0  0  0  0  0  0  0  0  0
    5.4897    2.0197    1.1625 H   0  0  0  0  0  0  0  0  0  0  0  0
    4.1974    0.5397   -0.8446 H   0  0  0  0  0  0  0  0  0  0  0  0
    2.6276    2.3975    0.1285 H   0  0  0  0  0  0  0  0  0  0  0  0
    3.9697    3.5101   -0.0355 H   0  0  0  0  0  0  0  0  0  0  0  0
    2.0507    4.8389    0.9043 H   0  0  0  0  0  0  0  0  0  0  0  0
    2.4576    4.6470    3.6356 H   0  0  0  0  0  0  0  0  0  0  0  0
  1  2  1  0  0  0  0
  1 17  1  0  0  0  0
  1 18  1  0  0  0  0
  1 19  1  0  0  0  0
  2  3  1  0  0  0  0
  3  4  1  0  0  0  0
  3  9  2  0  0  0  0
  4  5  2  0  0  0  0
  4 20  1  0  0  0  0
  5  6  1  0  0  0  0
  5 21  1  0  0  0  0
  6  7  1  0  0  0  0
  6  8  2  0  0  0  0
  8  9  1  0  0  0  0
  8 22  1  0  0  0  0
  9 10  1  0  0  0  0
 10 11  1  0  0  0  0
 10 12  1  0  0  0  0
 10 23  1  0  0  0  0
 11 24  1  0  0  0  0
 12 13  1  0  0  0  0
 12 25  1  0  0  0  0
 12 26  1  0  0  0  0
 13 14  2  0  0  0  0
 13 15  1  0  0  0  0
 15 16  1  0  0  0  0
 15 27  1  0  0  0  0
 16 28  1  0  0  0  0
M  END
>  <Line_Number>
62


> <IC50>
11000

$$$$
