72707598.0
 OpenBabel09302502333D

 28 28  0  0  1  0  0  0  0  0999 V2000
    0.9718   -0.3214   -0.4833 C   0  0  0  0  0  0  0  0  0  0  0  0
    2.2707    0.0079   -0.0011 O   0  0  0  0  0  0  0  0  0  0  0  0
    3.0173   -1.0179    0.5222 C   0  0  0  0  0  0  0  0  0  0  0  0
    2.7322   -2.3757    0.3303 C   0  0  0  0  0  0  0  0  0  0  0  0
    3.5805   -3.3595    0.8426 C   0  0  0  0  0  0  0  0  0  0  0  0
    4.7276   -2.9963    1.5371 C   0  0  0  0  0  0  0  0  0  0  0  0
    5.0137   -1.6479    1.7437 C   0  0  0  0  0  0  0  0  0  0  0  0
    4.1579   -0.6402    1.2587 C   0  0  0  0  0  0  0  0  0  0  0  0
    4.4886    0.8054    1.5960 C   0  0  3  0  0  0  0  0  0  0  0  0
    4.6597    1.5630    0.3919 O   0  0  0  0  0  0  0  0  0  0  0  0
    3.4333    1.5110    2.4471 C   0  0  0  0  0  0  0  0  0  0  0  0
    3.2046    0.8437    3.7796 C   0  0  0  0  0  0  0  0  0  0  0  0
    4.0596    0.2329    4.4127 O   0  0  0  0  0  0  0  0  0  0  0  0
    1.9292    1.0358    4.2636 N   0  0  0  0  0  0  0  0  0  0  0  0
    1.6762    0.5470    5.5646 O   0  0  0  0  0  0  0  0  0  0  0  0
    0.5104    0.6000   -0.8514 H   0  0  0  0  0  0  0  0  0  0  0  0
    0.3467   -0.7110    0.3269 H   0  0  0  0  0  0  0  0  0  0  0  0
    1.0157   -1.0203   -1.3245 H   0  0  0  0  0  0  0  0  0  0  0  0
    1.8608   -2.7089   -0.2232 H   0  0  0  0  0  0  0  0  0  0  0  0
    3.3479   -4.4106    0.6919 H   0  0  0  0  0  0  0  0  0  0  0  0
    5.3955   -3.7596    1.9284 H   0  0  0  0  0  0  0  0  0  0  0  0
    5.9073   -1.3839    2.3070 H   0  0  0  0  0  0  0  0  0  0  0  0
    5.4532    0.8510    2.1182 H   0  0  0  0  0  0  0  0  0  0  0  0
    3.9593    1.2677   -0.2197 H   0  0  0  0  0  0  0  0  0  0  0  0
    2.4866    1.6038    1.9039 H   0  0  0  0  0  0  0  0  0  0  0  0
    3.7615    2.5386    2.6461 H   0  0  0  0  0  0  0  0  0  0  0  0
    1.3039    1.7559    3.9185 H   0  0  0  0  0  0  0  0  0  0  0  0
    2.5324    0.1290    5.8012 H   0  0  0  0  0  0  0  0  0  0  0  0
  1  2  1  0  0  0  0
  1 16  1  0  0  0  0
  1 17  1  0  0  0  0
  1 18  1  0  0  0  0
  2  3  1  0  0  0  0
  3  4  1  0  0  0  0
  3  8  2  0  0  0  0
  4  5  2  0  0  0  0
  4 19  1  0  0  0  0
  5  6  1  0  0  0  0
  5 20  1  0  0  0  0
  6  7  2  0  0  0  0
  6 21  1  0  0  0  0
  7  8  1  0  0  0  0
  7 22  1  0  0  0  0
  8  9  1  0  0  0  0
  9 10  1  0  0  0  0
  9 11  1  0  0  0  0
  9 23  1  0  0  0  0
 10 24  1  0  0  0  0
 11 12  1  0  0  0  0
 11 25  1  0  0  0  0
 11 26  1  0  0  0  0
 12 13  2  0  0  0  0
 12 14  1  0  0  0  0
 14 15  1  0  0  0  0
 14 27  1  0  0  0  0
 15 28  1  0  0  0  0
M  END
>  <Line_Number>
63


> <IC50>
38500

$$$$
