72707669.0
 OpenBabel09302502333D

 27 27  0  0  1  0  0  0  0  0999 V2000
    3.9026   -2.1623   -1.7010 O   0  0  0  0  0  0  0  0  0  0  0  0
    4.0190   -1.4144   -0.7340 C   0  0  0  0  0  0  0  0  0  0  0  0
    2.9620   -1.2388    0.3360 C   0  0  0  0  0  0  0  0  0  0  0  0
    2.0810   -2.4841    0.4937 C   0  0  3  0  0  0  0  0  0  0  0  0
    1.3318   -2.6698   -0.7097 O   0  0  0  0  0  0  0  0  0  0  0  0
    2.7907   -3.7702    0.8938 C   0  0  0  0  0  0  0  0  0  0  0  0
    3.9698   -3.7662    1.6544 C   0  0  0  0  0  0  0  0  0  0  0  0
    4.6117   -4.9604    1.9945 C   0  0  0  0  0  0  0  0  0  0  0  0
    4.0785   -6.1948    1.6050 C   0  0  0  0  0  0  0  0  0  0  0  0
    4.7748   -7.4872    1.9468 C   0  0  0  0  0  0  0  0  0  0  0  0
    5.9366   -7.3126    2.6386 F   0  0  0  0  0  0  0  0  0  0  0  0
    4.0061   -8.3080    2.7145 F   0  0  0  0  0  0  0  0  0  0  0  0
    5.1067   -8.2104    0.8414 F   0  0  0  0  0  0  0  0  0  0  0  0
    2.8752   -6.2099    0.8888 C   0  0  0  0  0  0  0  0  0  0  0  0
    2.2376   -5.0141    0.5465 C   0  0  0  0  0  0  0  0  0  0  0  0
    5.1215   -0.6120   -0.5546 N   0  0  0  0  0  0  0  0  0  0  0  0
    6.1816   -0.7843   -1.4708 O   0  0  0  0  0  0  0  0  0  0  0  0
    2.3442   -0.3849    0.0305 H   0  0  0  0  0  0  0  0  0  0  0  0
    3.4373   -0.9784    1.2873 H   0  0  0  0  0  0  0  0  0  0  0  0
    1.3454   -2.2740    1.2793 H   0  0  0  0  0  0  0  0  0  0  0  0
    1.9835   -2.9106   -1.4017 H   0  0  0  0  0  0  0  0  0  0  0  0
    4.4206   -2.8392    1.9968 H   0  0  0  0  0  0  0  0  0  0  0  0
    5.5384   -4.9192    2.5660 H   0  0  0  0  0  0  0  0  0  0  0  0
    2.4287   -7.1564    0.5868 H   0  0  0  0  0  0  0  0  0  0  0  0
    1.2995   -5.0605   -0.0069 H   0  0  0  0  0  0  0  0  0  0  0  0
    5.3380   -0.1156    0.3017 H   0  0  0  0  0  0  0  0  0  0  0  0
    5.8363   -1.4795   -2.0727 H   0  0  0  0  0  0  0  0  0  0  0  0
  1  2  2  0  0  0  0
  2  3  1  0  0  0  0
  2 16  1  0  0  0  0
  3  4  1  0  0  0  0
  3 18  1  0  0  0  0
  3 19  1  0  0  0  0
  4  5  1  0  0  0  0
  4  6  1  0  0  0  0
  4 20  1  0  0  0  0
  5 21  1  0  0  0  0
  6  7  1  0  0  0  0
  6 15  2  0  0  0  0
  7  8  2  0  0  0  0
  7 22  1  0  0  0  0
  8  9  1  0  0  0  0
  8 23  1  0  0  0  0
  9 10  1  0  0  0  0
  9 14  2  0  0  0  0
 10 11  1  0  0  0  0
 10 12  1  0  0  0  0
 10 13  1  0  0  0  0
 14 15  1  0  0  0  0
 14 24  1  0  0  0  0
 15 25  1  0  0  0  0
 16 17  1  0  0  0  0
 16 26  1  0  0  0  0
 17 27  1  0  0  0  0
M  END
>  <Line_Number>
64


> <IC50>
7890

$$$$
