72707742.0
 OpenBabel09302502333D

 25 25  0  0  1  0  0  0  0  0999 V2000
    2.3566   -0.0812    1.2199 O   0  0  0  0  0  0  0  0  0  0  0  0
    2.0512    0.1217    0.0452 C   0  0  0  0  0  0  0  0  0  0  0  0
    2.8491   -0.4397   -1.1128 C   0  0  0  0  0  0  0  0  0  0  0  0
    1.9573   -0.9640   -2.2427 C   0  0  3  0  0  0  0  0  0  0  0  0
    1.2047    0.1199   -2.8038 O   0  0  0  0  0  0  0  0  0  0  0  0
    2.7343   -1.6381   -3.3563 C   0  0  0  0  0  0  0  0  0  0  0  0
    2.5120   -2.9960   -3.6406 C   0  0  0  0  0  0  0  0  0  0  0  0
    3.2136   -3.6332   -4.6694 C   0  0  0  0  0  0  0  0  0  0  0  0
    2.9050   -5.2918   -5.0084 Cl  0  0  0  0  0  0  0  0  0  0  0  0
    4.1528   -2.9415   -5.4295 C   0  0  0  0  0  0  0  0  0  0  0  0
    4.3747   -1.5946   -5.1657 C   0  0  0  0  0  0  0  0  0  0  0  0
    5.5234   -0.7224   -6.1116 Cl  0  0  0  0  0  0  0  0  0  0  0  0
    3.6637   -0.9468   -4.1477 C   0  0  0  0  0  0  0  0  0  0  0  0
    3.8297    0.3973   -3.9253 O   0  0  0  0  0  0  0  0  0  0  0  0
    1.0155    0.9536   -0.2993 N   0  0  0  0  0  0  0  0  0  0  0  0
    0.2064    1.4181    0.7610 O   0  0  0  0  0  0  0  0  0  0  0  0
    3.4706   -1.2563   -0.7245 H   0  0  0  0  0  0  0  0  0  0  0  0
    3.5173    0.3605   -1.4480 H   0  0  0  0  0  0  0  0  0  0  0  0
    1.2239   -1.6631   -1.8224 H   0  0  0  0  0  0  0  0  0  0  0  0
    1.8237    0.6078   -3.3856 H   0  0  0  0  0  0  0  0  0  0  0  0
    1.7782   -3.5620   -3.0687 H   0  0  0  0  0  0  0  0  0  0  0  0
    4.6945   -3.4452   -6.2251 H   0  0  0  0  0  0  0  0  0  0  0  0
    4.5413    0.7054   -4.5226 H   0  0  0  0  0  0  0  0  0  0  0  0
    0.5862    0.9061   -1.2273 H   0  0  0  0  0  0  0  0  0  0  0  0
    0.6636    1.0515    1.5498 H   0  0  0  0  0  0  0  0  0  0  0  0
  1  2  2  0  0  0  0
  2  3  1  0  0  0  0
  2 15  1  0  0  0  0
  3  4  1  0  0  0  0
  3 17  1  0  0  0  0
  3 18  1  0  0  0  0
  4  5  1  0  0  0  0
  4  6  1  0  0  0  0
  4 19  1  0  0  0  0
  5 20  1  0  0  0  0
  6  7  1  0  0  0  0
  6 13  2  0  0  0  0
  7  8  2  0  0  0  0
  7 21  1  0  0  0  0
  8  9  1  0  0  0  0
  8 10  1  0  0  0  0
 10 11  2  0  0  0  0
 10 22  1  0  0  0  0
 11 12  1  0  0  0  0
 11 13  1  0  0  0  0
 13 14  1  0  0  0  0
 14 23  1  0  0  0  0
 15 16  1  0  0  0  0
 15 24  1  0  0  0  0
 16 25  1  0  0  0  0
M  END
>  <Line_Number>
65


> <IC50>
4970

$$$$
