71721720.0
 OpenBabel09302502333D

 24 24  0  0  1  0  0  0  0  0999 V2000
    2.5977   -1.2825    0.0821 O   0  0  0  0  0  0  0  0  0  0  0  0
    2.2030   -0.1315   -0.1116 C   0  0  0  0  0  0  0  0  0  0  0  0
    2.9796    0.8598   -0.9621 C   0  0  0  0  0  0  0  0  0  0  0  0
    2.0672    1.7300   -1.8260 C   0  0  3  0  0  0  0  0  0  0  0  0
    1.2294    2.5234   -0.9708 O   0  0  0  0  0  0  0  0  0  0  0  0
    2.8180    2.6483   -2.7687 C   0  0  0  0  0  0  0  0  0  0  0  0
    2.5726    2.5833   -4.1512 C   0  0  0  0  0  0  0  0  0  0  0  0
    3.2172    3.4521   -5.0346 C   0  0  0  0  0  0  0  0  0  0  0  0
    4.1074    4.4070   -4.5499 C   0  0  0  0  0  0  0  0  0  0  0  0
    4.3661    4.4830   -3.1836 C   0  0  0  0  0  0  0  0  0  0  0  0
    3.7322    3.6073   -2.2996 C   0  0  0  0  0  0  0  0  0  0  0  0
    1.0881    0.3648    0.5087 N   0  0  0  0  0  0  0  0  0  0  0  0
    0.3157   -0.5537    1.2513 O   0  0  0  0  0  0  0  0  0  0  0  0
    3.6610    0.2885   -1.6033 H   0  0  0  0  0  0  0  0  0  0  0  0
    3.5827    1.4656   -0.2753 H   0  0  0  0  0  0  0  0  0  0  0  0
    1.3914    1.0793   -2.3987 H   0  0  0  0  0  0  0  0  0  0  0  0
    1.6967    3.3554   -0.7787 H   0  0  0  0  0  0  0  0  0  0  0  0
    1.8692    1.8560   -4.5540 H   0  0  0  0  0  0  0  0  0  0  0  0
    3.0140    3.3918   -6.1015 H   0  0  0  0  0  0  0  0  0  0  0  0
    4.6010    5.0902   -5.2369 H   0  0  0  0  0  0  0  0  0  0  0  0
    5.0590    5.2310   -2.8052 H   0  0  0  0  0  0  0  0  0  0  0  0
    3.9511    3.6949   -1.2369 H   0  0  0  0  0  0  0  0  0  0  0  0
    0.6129    1.1964    0.1564 H   0  0  0  0  0  0  0  0  0  0  0  0
    0.8522   -1.3729    1.1912 H   0  0  0  0  0  0  0  0  0  0  0  0
  1  2  2  0  0  0  0
  2  3  1  0  0  0  0
  2 12  1  0  0  0  0
  3  4  1  0  0  0  0
  3 14  1  0  0  0  0
  3 15  1  0  0  0  0
  4  5  1  0  0  0  0
  4  6  1  0  0  0  0
  4 16  1  0  0  0  0
  5 17  1  0  0  0  0
  6  7  1  0  0  0  0
  6 11  2  0  0  0  0
  7  8  2  0  0  0  0
  7 18  1  0  0  0  0
  8  9  1  0  0  0  0
  8 19  1  0  0  0  0
  9 10  2  0  0  0  0
  9 20  1  0  0  0  0
 10 11  1  0  0  0  0
 10 21  1  0  0  0  0
 11 22  1  0  0  0  0
 12 13  1  0  0  0  0
 12 23  1  0  0  0  0
 13 24  1  0  0  0  0
M  END
>  <Line_Number>
66


> <IC50>
15600

$$$$
