72707664.0
 OpenBabel09302502333D

 27 27  0  0  1  0  0  0  0  0999 V2000
    4.4618    1.4125   -0.2099 O   0  0  0  0  0  0  0  0  0  0  0  0
    3.5611    2.1849    0.1075 C   0  0  0  0  0  0  0  0  0  0  0  0
    2.1446    2.0900   -0.4017 C   0  0  0  0  0  0  0  0  0  0  0  0
    2.0801    1.6062   -1.8487 C   0  0  3  0  0  0  0  0  0  0  0  0
    0.6996    1.4397   -2.1905 O   0  0  0  0  0  0  0  0  0  0  0  0
    2.7515    2.5529   -2.8303 C   0  0  0  0  0  0  0  0  0  0  0  0
    2.3634    3.8963   -2.9554 C   0  0  0  0  0  0  0  0  0  0  0  0
    3.0385    4.7569   -3.8224 C   0  0  0  0  0  0  0  0  0  0  0  0
    4.1168    4.2893   -4.5731 C   0  0  0  0  0  0  0  0  0  0  0  0
    4.5253    2.9528   -4.4753 C   0  0  0  0  0  0  0  0  0  0  0  0
    5.6988    2.4346   -5.2715 C   0  0  0  0  0  0  0  0  0  0  0  0
    6.3012    3.3889   -6.0363 F   0  0  0  0  0  0  0  0  0  0  0  0
    6.6810    1.9198   -4.4814 F   0  0  0  0  0  0  0  0  0  0  0  0
    5.3489    1.4377   -6.1313 F   0  0  0  0  0  0  0  0  0  0  0  0
    3.8279    2.0929   -3.6084 C   0  0  0  0  0  0  0  0  0  0  0  0
    3.7514    3.2009    1.0123 N   0  0  0  0  0  0  0  0  0  0  0  0
    5.0276    3.2808    1.6112 O   0  0  0  0  0  0  0  0  0  0  0  0
    1.6292    3.0509   -0.2880 H   0  0  0  0  0  0  0  0  0  0  0  0
    1.6096    1.3833    0.2454 H   0  0  0  0  0  0  0  0  0  0  0  0
    2.5340    0.6107   -1.9222 H   0  0  0  0  0  0  0  0  0  0  0  0
    0.3331    2.3074   -2.4249 H   0  0  0  0  0  0  0  0  0  0  0  0
    1.5386    4.2947   -2.3718 H   0  0  0  0  0  0  0  0  0  0  0  0
    2.7302    5.7990   -3.9047 H   0  0  0  0  0  0  0  0  0  0  0  0
    4.6436    4.9779   -5.2338 H   0  0  0  0  0  0  0  0  0  0  0  0
    4.1494    1.0531   -3.5253 H   0  0  0  0  0  0  0  0  0  0  0  0
    3.0042    3.7245    1.4548 H   0  0  0  0  0  0  0  0  0  0  0  0
    5.5032    2.5299    1.1931 H   0  0  0  0  0  0  0  0  0  0  0  0
  1  2  2  0  0  0  0
  2  3  1  0  0  0  0
  2 16  1  0  0  0  0
  3  4  1  0  0  0  0
  3 18  1  0  0  0  0
  3 19  1  0  0  0  0
  4  5  1  0  0  0  0
  4  6  1  0  0  0  0
  4 20  1  0  0  0  0
  5 21  1  0  0  0  0
  6  7  1  0  0  0  0
  6 15  2  0  0  0  0
  7  8  2  0  0  0  0
  7 22  1  0  0  0  0
  8  9  1  0  0  0  0
  8 23  1  0  0  0  0
  9 10  2  0  0  0  0
  9 24  1  0  0  0  0
 10 11  1  0  0  0  0
 10 15  1  0  0  0  0
 11 12  1  0  0  0  0
 11 13  1  0  0  0  0
 11 14  1  0  0  0  0
 15 25  1  0  0  0  0
 16 17  1  0  0  0  0
 16 26  1  0  0  0  0
 17 27  1  0  0  0  0
M  END
>  <Line_Number>
67


> <IC50>
4015

$$$$
