72707667.0
 OpenBabel09302502333D

 24 24  0  0  1  0  0  0  0  0999 V2000
    3.5593    0.6831    2.7913 O   0  0  0  0  0  0  0  0  0  0  0  0
    3.9270    0.0437    1.8119 C   0  0  0  0  0  0  0  0  0  0  0  0
    3.0486   -0.9037    1.0335 C   0  0  0  0  0  0  0  0  0  0  0  0
    2.0738   -1.6572    1.9370 C   0  0  3  0  0  0  0  0  0  0  0  0
    1.2152   -2.4495    1.1107 O   0  0  0  0  0  0  0  0  0  0  0  0
    2.7595   -2.5476    2.9583 C   0  0  0  0  0  0  0  0  0  0  0  0
    2.5077   -2.3442    4.3261 C   0  0  0  0  0  0  0  0  0  0  0  0
    3.1703   -3.0981    5.2981 C   0  0  0  0  0  0  0  0  0  0  0  0
    4.0896   -4.0677    4.9110 C   0  0  0  0  0  0  0  0  0  0  0  0
    4.9284   -4.9792    6.1049 Cl  0  0  0  0  0  0  0  0  0  0  0  0
    4.3407   -4.2984    3.5605 C   0  0  0  0  0  0  0  0  0  0  0  0
    3.6760   -3.5454    2.5875 C   0  0  0  0  0  0  0  0  0  0  0  0
    5.1922    0.1709    1.2852 N   0  0  0  0  0  0  0  0  0  0  0  0
    6.0353    1.1194    1.9024 O   0  0  0  0  0  0  0  0  0  0  0  0
    3.6565   -1.6017    0.4466 H   0  0  0  0  0  0  0  0  0  0  0  0
    2.4854   -0.3092    0.3031 H   0  0  0  0  0  0  0  0  0  0  0  0
    1.4237   -0.9388    2.4500 H   0  0  0  0  0  0  0  0  0  0  0  0
    1.7450   -3.1551    0.7061 H   0  0  0  0  0  0  0  0  0  0  0  0
    1.8042   -1.5771    4.6476 H   0  0  0  0  0  0  0  0  0  0  0  0
    2.9720   -2.9138    6.3507 H   0  0  0  0  0  0  0  0  0  0  0  0
    5.0590   -5.0566    3.2599 H   0  0  0  0  0  0  0  0  0  0  0  0
    3.8959   -3.7425    1.5417 H   0  0  0  0  0  0  0  0  0  0  0  0
    5.4714   -0.1607    0.3688 H   0  0  0  0  0  0  0  0  0  0  0  0
    5.4688    1.4679    2.6262 H   0  0  0  0  0  0  0  0  0  0  0  0
  1  2  2  0  0  0  0
  2  3  1  0  0  0  0
  2 13  1  0  0  0  0
  3  4  1  0  0  0  0
  3 15  1  0  0  0  0
  3 16  1  0  0  0  0
  4  5  1  0  0  0  0
  4  6  1  0  0  0  0
  4 17  1  0  0  0  0
  5 18  1  0  0  0  0
  6  7  1  0  0  0  0
  6 12  2  0  0  0  0
  7  8  2  0  0  0  0
  7 19  1  0  0  0  0
  8  9  1  0  0  0  0
  8 20  1  0  0  0  0
  9 10  1  0  0  0  0
  9 11  2  0  0  0  0
 11 12  1  0  0  0  0
 11 21  1  0  0  0  0
 12 22  1  0  0  0  0
 13 14  1  0  0  0  0
 13 23  1  0  0  0  0
 14 24  1  0  0  0  0
M  END
>  <Line_Number>
68


> <IC50>
3390

$$$$
