72707602.0
 OpenBabel09302502333D

 28 28  0  0  1  0  0  0  0  0999 V2000
    1.1791    0.2317   -0.4636 C   0  0  0  0  0  0  0  0  0  0  0  0
    2.3732   -0.0953    0.2370 O   0  0  0  0  0  0  0  0  0  0  0  0
    3.0071   -1.2489   -0.1343 C   0  0  0  0  0  0  0  0  0  0  0  0
    2.5600   -2.1613   -1.0881 C   0  0  0  0  0  0  0  0  0  0  0  0
    3.3177   -3.2980   -1.3746 C   0  0  0  0  0  0  0  0  0  0  0  0
    4.5292   -3.5213   -0.7180 C   0  0  0  0  0  0  0  0  0  0  0  0
    5.0012   -2.6127    0.2399 C   0  0  0  0  0  0  0  0  0  0  0  0
    6.3353   -2.8571    0.9191 C   0  0  3  0  0  0  0  0  0  0  0  0
    7.2315   -1.7732    0.6375 O   0  0  0  0  0  0  0  0  0  0  0  0
    6.2454   -2.9734    2.4358 C   0  0  0  0  0  0  0  0  0  0  0  0
    5.4516   -4.1779    2.8838 C   0  0  0  0  0  0  0  0  0  0  0  0
    5.3893   -5.2395    2.2659 O   0  0  0  0  0  0  0  0  0  0  0  0
    4.8584   -4.0052    4.1114 N   0  0  0  0  0  0  0  0  0  0  0  0
    4.0402   -5.0749    4.5479 O   0  0  0  0  0  0  0  0  0  0  0  0
    4.2149   -1.4856    0.5308 C   0  0  0  0  0  0  0  0  0  0  0  0
    0.8387    1.2082   -0.1059 H   0  0  0  0  0  0  0  0  0  0  0  0
    0.3906   -0.4973   -0.2504 H   0  0  0  0  0  0  0  0  0  0  0  0
    1.3587    0.3181   -1.5404 H   0  0  0  0  0  0  0  0  0  0  0  0
    1.6290   -2.0195   -1.6269 H   0  0  0  0  0  0  0  0  0  0  0  0
    2.9654   -4.0110   -2.1161 H   0  0  0  0  0  0  0  0  0  0  0  0
    5.1019   -4.4154   -0.9599 H   0  0  0  0  0  0  0  0  0  0  0  0
    6.8064   -3.7573    0.5062 H   0  0  0  0  0  0  0  0  0  0  0  0
    6.7067   -0.9678    0.4909 H   0  0  0  0  0  0  0  0  0  0  0  0
    5.8318   -2.0594    2.8744 H   0  0  0  0  0  0  0  0  0  0  0  0
    7.2554   -3.0777    2.8530 H   0  0  0  0  0  0  0  0  0  0  0  0
    4.6218   -3.0885    4.4794 H   0  0  0  0  0  0  0  0  0  0  0  0
    4.1608   -5.7367    3.8320 H   0  0  0  0  0  0  0  0  0  0  0  0
    4.5413   -0.7621    1.2745 H   0  0  0  0  0  0  0  0  0  0  0  0
  1  2  1  0  0  0  0
  1 16  1  0  0  0  0
  1 17  1  0  0  0  0
  1 18  1  0  0  0  0
  2  3  1  0  0  0  0
  3  4  1  0  0  0  0
  3 15  2  0  0  0  0
  4  5  2  0  0  0  0
  4 19  1  0  0  0  0
  5  6  1  0  0  0  0
  5 20  1  0  0  0  0
  6  7  2  0  0  0  0
  6 21  1  0  0  0  0
  7  8  1  0  0  0  0
  7 15  1  0  0  0  0
  8  9  1  0  0  0  0
  8 10  1  0  0  0  0
  8 22  1  0  0  0  0
  9 23  1  0  0  0  0
 10 11  1  0  0  0  0
 10 24  1  0  0  0  0
 10 25  1  0  0  0  0
 11 12  2  0  0  0  0
 11 13  1  0  0  0  0
 13 14  1  0  0  0  0
 13 26  1  0  0  0  0
 14 27  1  0  0  0  0
 15 28  1  0  0  0  0
M  END
>  <Line_Number>
69


> <IC50>
23200

$$$$
