49844557.0
 OpenBabel09302502333D

 30 31  0  0  0  0  0  0  0  0999 V2000
    1.6397   -1.5512    0.1666 O   0  0  0  0  0  0  0  0  0  0  0  0
    0.4780   -0.8329    0.1115 C   0  0  0  0  0  0  0  0  0  0  0  0
   -0.0711   -0.4678   -1.1148 C   0  0  0  0  0  0  0  0  0  0  0  0
   -1.2558    0.2759   -1.1515 C   0  0  0  0  0  0  0  0  0  0  0  0
   -1.8950    0.6646    0.0359 C   0  0  0  0  0  0  0  0  0  0  0  0
   -3.1657    1.4842   -0.0048 C   0  0  0  0  0  0  0  0  0  0  0  0
   -4.4269    0.6140   -0.0063 C   0  0  0  0  0  0  0  0  0  0  0  0
   -5.6943    1.4387   -0.0444 C   0  0  0  0  0  0  0  0  0  0  0  0
   -6.2519    1.8271   -1.2730 C   0  0  0  0  0  0  0  0  0  0  0  0
   -7.4271    2.5801   -1.3110 C   0  0  0  0  0  0  0  0  0  0  0  0
   -8.0439    2.9509   -0.1227 C   0  0  0  0  0  0  0  0  0  0  0  0
   -9.1750    3.6686   -0.1605 F   0  0  0  0  0  0  0  0  0  0  0  0
   -7.5035    2.5865    1.1041 C   0  0  0  0  0  0  0  0  0  0  0  0
   -6.3277    1.8337    1.1449 C   0  0  0  0  0  0  0  0  0  0  0  0
   -1.3369    0.2802    1.2650 C   0  0  0  0  0  0  0  0  0  0  0  0
   -0.1539   -0.4604    1.2971 C   0  0  0  0  0  0  0  0  0  0  0  0
    0.4011   -0.8245    2.4932 O   0  0  0  0  0  0  0  0  0  0  0  0
    1.9505   -1.7217   -0.7350 H   0  0  0  0  0  0  0  0  0  0  0  0
    0.4095   -0.7470   -2.0474 H   0  0  0  0  0  0  0  0  0  0  0  0
   -1.6713    0.5584   -2.1166 H   0  0  0  0  0  0  0  0  0  0  0  0
   -3.1483    2.1315   -0.8914 H   0  0  0  0  0  0  0  0  0  0  0  0
   -3.1769    2.1671    0.8551 H   0  0  0  0  0  0  0  0  0  0  0  0
   -4.4455   -0.0339    0.8799 H   0  0  0  0  0  0  0  0  0  0  0  0
   -4.4179   -0.0676   -0.8670 H   0  0  0  0  0  0  0  0  0  0  0  0
   -5.7775    1.5376   -2.2082 H   0  0  0  0  0  0  0  0  0  0  0  0
   -7.8662    2.8762   -2.2584 H   0  0  0  0  0  0  0  0  0  0  0  0
   -8.0038    2.8877    2.0200 H   0  0  0  0  0  0  0  0  0  0  0  0
   -5.9143    1.5501    2.1102 H   0  0  0  0  0  0  0  0  0  0  0  0
   -1.8262    0.5704    2.1902 H   0  0  0  0  0  0  0  0  0  0  0  0
   -0.1348   -0.4621    3.2142 H   0  0  0  0  0  0  0  0  0  0  0  0
  1  2  1  0  0  0  0
  1 18  1  0  0  0  0
  2  3  1  0  0  0  0
  2 16  2  0  0  0  0
  3  4  2  0  0  0  0
  3 19  1  0  0  0  0
  4  5  1  0  0  0  0
  4 20  1  0  0  0  0
  5  6  1  0  0  0  0
  5 15  2  0  0  0  0
  6  7  1  0  0  0  0
  6 21  1  0  0  0  0
  6 22  1  0  0  0  0
  7  8  1  0  0  0  0
  7 23  1  0  0  0  0
  7 24  1  0  0  0  0
  8  9  1  0  0  0  0
  8 14  2  0  0  0  0
  9 10  2  0  0  0  0
  9 25  1  0  0  0  0
 10 11  1  0  0  0  0
 10 26  1  0  0  0  0
 11 12  1  0  0  0  0
 11 13  2  0  0  0  0
 13 14  1  0  0  0  0
 13 27  1  0  0  0  0
 14 28  1  0  0  0  0
 15 16  1  0  0  0  0
 15 29  1  0  0  0  0
 16 17  1  0  0  0  0
 17 30  1  0  0  0  0
M  END
>  <Line_Number>
6


> <IC50>
19300

$$$$
