72707665.0
 OpenBabel09302502333D

 28 28  0  0  1  0  0  0  0  0999 V2000
    1.4392    0.2394    0.8375 C   0  0  0  0  0  0  0  0  0  0  0  0
    2.5778   -0.0275    0.0292 O   0  0  0  0  0  0  0  0  0  0  0  0
    3.1089    1.0334   -0.6544 C   0  0  0  0  0  0  0  0  0  0  0  0
    2.6720    2.3535   -0.5934 C   0  0  0  0  0  0  0  0  0  0  0  0
    3.3017    3.3391   -1.3608 C   0  0  0  0  0  0  0  0  0  0  0  0
    4.3773    3.0231   -2.2046 C   0  0  0  0  0  0  0  0  0  0  0  0
    5.0069    4.1106   -3.0583 C   0  0  3  0  0  0  0  0  0  0  0  0
    6.3798    4.2942   -2.6895 O   0  0  0  0  0  0  0  0  0  0  0  0
    4.9839    3.8006   -4.5521 C   0  0  0  0  0  0  0  0  0  0  0  0
    3.5844    3.6878   -5.1000 C   0  0  0  0  0  0  0  0  0  0  0  0
    2.6236    4.3374   -4.6906 O   0  0  0  0  0  0  0  0  0  0  0  0
    3.4851    2.8299   -6.1723 N   0  0  0  0  0  0  0  0  0  0  0  0
    2.1770    2.6231   -6.6689 O   0  0  0  0  0  0  0  0  0  0  0  0
    4.8234    1.6965   -2.2465 C   0  0  0  0  0  0  0  0  0  0  0  0
    4.1924    0.7138   -1.4770 C   0  0  0  0  0  0  0  0  0  0  0  0
    1.1168   -0.7064    1.2836 H   0  0  0  0  0  0  0  0  0  0  0  0
    0.6065    0.6249    0.2389 H   0  0  0  0  0  0  0  0  0  0  0  0
    1.6903    0.9244    1.6538 H   0  0  0  0  0  0  0  0  0  0  0  0
    1.8404    2.6498    0.0347 H   0  0  0  0  0  0  0  0  0  0  0  0
    2.9307    4.3618   -1.3031 H   0  0  0  0  0  0  0  0  0  0  0  0
    4.5038    5.0677   -2.8743 H   0  0  0  0  0  0  0  0  0  0  0  0
    6.6619    3.5332   -2.1554 H   0  0  0  0  0  0  0  0  0  0  0  0
    5.5559    2.8906   -4.7687 H   0  0  0  0  0  0  0  0  0  0  0  0
    5.4871    4.6076   -5.0997 H   0  0  0  0  0  0  0  0  0  0  0  0
    4.1403    2.0696   -6.3225 H   0  0  0  0  0  0  0  0  0  0  0  0
    1.6366    3.2188   -6.1038 H   0  0  0  0  0  0  0  0  0  0  0  0
    5.6591    1.4041   -2.8764 H   0  0  0  0  0  0  0  0  0  0  0  0
    4.5408   -0.3152   -1.5249 H   0  0  0  0  0  0  0  0  0  0  0  0
  1  2  1  0  0  0  0
  1 16  1  0  0  0  0
  1 17  1  0  0  0  0
  1 18  1  0  0  0  0
  2  3  1  0  0  0  0
  3  4  1  0  0  0  0
  3 15  2  0  0  0  0
  4  5  2  0  0  0  0
  4 19  1  0  0  0  0
  5  6  1  0  0  0  0
  5 20  1  0  0  0  0
  6  7  1  0  0  0  0
  6 14  2  0  0  0  0
  7  8  1  0  0  0  0
  7  9  1  0  0  0  0
  7 21  1  0  0  0  0
  8 22  1  0  0  0  0
  9 10  1  0  0  0  0
  9 23  1  0  0  0  0
  9 24  1  0  0  0  0
 10 11  2  0  0  0  0
 10 12  1  0  0  0  0
 12 13  1  0  0  0  0
 12 25  1  0  0  0  0
 13 26  1  0  0  0  0
 14 15  1  0  0  0  0
 14 27  1  0  0  0  0
 15 28  1  0  0  0  0
M  END
>  <Line_Number>
70


> <IC50>
75100

$$$$
