72707603.0
 OpenBabel09302502333D

 24 24  0  0  1  0  0  0  0  0999 V2000
    2.6643   -1.0256    0.6775 O   0  0  0  0  0  0  0  0  0  0  0  0
    2.1670   -0.0674    0.1189 C   0  0  0  0  0  0  0  0  0  0  0  0
    2.8875    0.6874   -1.0063 C   0  0  0  0  0  0  0  0  0  0  0  0
    1.9310    1.3392   -2.0177 C   0  0  3  0  0  0  0  0  0  0  0  0
    1.0919    2.2838   -1.3305 O   0  0  0  0  0  0  0  0  0  0  0  0
    2.6437    2.0275   -3.1680 C   0  0  0  0  0  0  0  0  0  0  0  0
    2.4927    3.4036   -3.4201 C   0  0  0  0  0  0  0  0  0  0  0  0
    3.1314    4.0201   -4.4995 C   0  0  0  0  0  0  0  0  0  0  0  0
    3.9300    3.2684   -5.3540 C   0  0  0  0  0  0  0  0  0  0  0  0
    4.0802    1.9081   -5.1197 C   0  0  0  0  0  0  0  0  0  0  0  0
    4.8411    1.1794   -5.9465 F   0  0  0  0  0  0  0  0  0  0  0  0
    3.4465    1.2838   -4.0465 C   0  0  0  0  0  0  0  0  0  0  0  0
    0.9640    0.4622    0.5058 N   0  0  0  0  0  0  0  0  0  0  0  0
    0.1803   -0.0891    1.5263 O   0  0  0  0  0  0  0  0  0  0  0  0
    3.5248   -0.0441   -1.5175 H   0  0  0  0  0  0  0  0  0  0  0  0
    3.5443    1.4488   -0.5617 H   0  0  0  0  0  0  0  0  0  0  0  0
    1.2553    0.5816   -2.4343 H   0  0  0  0  0  0  0  0  0  0  0  0
    1.6634    2.8398   -0.7721 H   0  0  0  0  0  0  0  0  0  0  0  0
    1.8548    4.0198   -2.7884 H   0  0  0  0  0  0  0  0  0  0  0  0
    2.9907    5.0839   -4.6771 H   0  0  0  0  0  0  0  0  0  0  0  0
    4.4241    3.7292   -6.2033 H   0  0  0  0  0  0  0  0  0  0  0  0
    3.5827    0.2131   -3.9215 H   0  0  0  0  0  0  0  0  0  0  0  0
    0.5662    1.2559    0.0060 H   0  0  0  0  0  0  0  0  0  0  0  0
    0.4958   -1.0034    1.6351 H   0  0  0  0  0  0  0  0  0  0  0  0
  1  2  2  0  0  0  0
  2  3  1  0  0  0  0
  2 13  1  0  0  0  0
  3  4  1  0  0  0  0
  3 15  1  0  0  0  0
  3 16  1  0  0  0  0
  4  5  1  0  0  0  0
  4  6  1  0  0  0  0
  4 17  1  0  0  0  0
  5 18  1  0  0  0  0
  6  7  1  0  0  0  0
  6 12  2  0  0  0  0
  7  8  2  0  0  0  0
  7 19  1  0  0  0  0
  8  9  1  0  0  0  0
  8 20  1  0  0  0  0
  9 10  2  0  0  0  0
  9 21  1  0  0  0  0
 10 11  1  0  0  0  0
 10 12  1  0  0  0  0
 12 22  1  0  0  0  0
 13 14  1  0  0  0  0
 13 23  1  0  0  0  0
 14 24  1  0  0  0  0
M  END
>  <Line_Number>
71


> <IC50>
8645

$$$$
