72707599.0
 OpenBabel09302502333D

 24 24  0  0  1  0  0  0  0  0999 V2000
    2.6719   -0.9598    0.7600 O   0  0  0  0  0  0  0  0  0  0  0  0
    2.1931   -0.1783   -0.0586 C   0  0  0  0  0  0  0  0  0  0  0  0
    2.9271    0.2301   -1.3231 C   0  0  0  0  0  0  0  0  0  0  0  0
    2.0036    0.2970   -2.5406 C   0  0  3  0  0  0  0  0  0  0  0  0
    1.0022    1.3000   -2.3392 O   0  0  0  0  0  0  0  0  0  0  0  0
    2.7650    0.4999   -3.8403 C   0  0  0  0  0  0  0  0  0  0  0  0
    3.0921   -0.6500   -4.5884 C   0  0  0  0  0  0  0  0  0  0  0  0
    3.7712   -0.5585   -5.8049 C   0  0  0  0  0  0  0  0  0  0  0  0
    4.1373    0.6862   -6.3064 C   0  0  0  0  0  0  0  0  0  0  0  0
    3.8446    1.8357   -5.5772 C   0  0  0  0  0  0  0  0  0  0  0  0
    3.1815    1.7457   -4.3469 C   0  0  0  0  0  0  0  0  0  0  0  0
    2.9206    3.2283   -3.4966 Cl  0  0  0  0  0  0  0  0  0  0  0  0
    0.9924    0.4523    0.1577 N   0  0  0  0  0  0  0  0  0  0  0  0
    0.2570    0.0284    1.2865 O   0  0  0  0  0  0  0  0  0  0  0  0
    3.7125   -0.5157   -1.4965 H   0  0  0  0  0  0  0  0  0  0  0  0
    3.4117    1.1932   -1.1273 H   0  0  0  0  0  0  0  0  0  0  0  0
    1.4422   -0.6426   -2.6102 H   0  0  0  0  0  0  0  0  0  0  0  0
    1.4002    2.1662   -2.5515 H   0  0  0  0  0  0  0  0  0  0  0  0
    2.8121   -1.6385   -4.2265 H   0  0  0  0  0  0  0  0  0  0  0  0
    4.0093   -1.4602   -6.3646 H   0  0  0  0  0  0  0  0  0  0  0  0
    4.6536    0.7616   -7.2600 H   0  0  0  0  0  0  0  0  0  0  0  0
    4.1388    2.8049   -5.9733 H   0  0  0  0  0  0  0  0  0  0  0  0
    0.4627    0.8624   -0.6144 H   0  0  0  0  0  0  0  0  0  0  0  0
    0.8709   -0.6096    1.7093 H   0  0  0  0  0  0  0  0  0  0  0  0
  1  2  2  0  0  0  0
  2  3  1  0  0  0  0
  2 13  1  0  0  0  0
  3  4  1  0  0  0  0
  3 15  1  0  0  0  0
  3 16  1  0  0  0  0
  4  5  1  0  0  0  0
  4  6  1  0  0  0  0
  4 17  1  0  0  0  0
  5 18  1  0  0  0  0
  6  7  1  0  0  0  0
  6 11  2  0  0  0  0
  7  8  2  0  0  0  0
  7 19  1  0  0  0  0
  8  9  1  0  0  0  0
  8 20  1  0  0  0  0
  9 10  2  0  0  0  0
  9 21  1  0  0  0  0
 10 11  1  0  0  0  0
 10 22  1  0  0  0  0
 11 12  1  0  0  0  0
 13 14  1  0  0  0  0
 13 23  1  0  0  0  0
 14 24  1  0  0  0  0
M  END
>  <Line_Number>
72


> <IC50>
5200

$$$$
