72707666.0
 OpenBabel09302502333D

 38 39  0  0  1  0  0  0  0  0999 V2000
    2.6333    0.5808   -1.2410 O   0  0  0  0  0  0  0  0  0  0  0  0
    2.2324    0.0525   -0.2054 C   0  0  0  0  0  0  0  0  0  0  0  0
    2.9602    0.2161    1.1193 C   0  0  0  0  0  0  0  0  0  0  0  0
    2.0142    0.2477    2.3188 C   0  0  3  0  0  0  0  0  0  0  0  0
    1.2706   -0.9830    2.3852 O   0  0  0  0  0  0  0  0  0  0  0  0
    2.7484    0.4560    3.6287 C   0  0  0  0  0  0  0  0  0  0  0  0
    2.9607    1.7540    4.1307 C   0  0  0  0  0  0  0  0  0  0  0  0
    3.5938    1.9450    5.3695 C   0  0  0  0  0  0  0  0  0  0  0  0
    4.0119    0.8443    6.1140 C   0  0  0  0  0  0  0  0  0  0  0  0
    4.5322    1.0818    7.3584 O   0  0  0  0  0  0  0  0  0  0  0  0
    4.4148   -0.0351    8.2493 C   0  0  0  0  0  0  0  0  0  0  0  0
    4.4705    0.3905    9.6923 C   0  0  0  0  0  0  0  0  0  0  0  0
    3.7331   -0.3160   10.6442 C   0  0  0  0  0  0  0  0  0  0  0  0
    3.7780    0.0443   11.9909 C   0  0  0  0  0  0  0  0  0  0  0  0
    4.5771    1.1128   12.3928 C   0  0  0  0  0  0  0  0  0  0  0  0
    5.3349    1.8109   11.4516 C   0  0  0  0  0  0  0  0  0  0  0  0
    5.2903    1.4490   10.1084 C   0  0  0  0  0  0  0  0  0  0  0  0
    3.8606   -0.4380    5.5873 C   0  0  0  0  0  0  0  0  0  0  0  0
    3.2284   -0.6290    4.3637 C   0  0  0  0  0  0  0  0  0  0  0  0
    1.1570   -0.7972   -0.1784 N   0  0  0  0  0  0  0  0  0  0  0  0
    0.3905   -0.9743   -1.3443 O   0  0  0  0  0  0  0  0  0  0  0  0
    3.5277    1.1558    1.0779 H   0  0  0  0  0  0  0  0  0  0  0  0
    3.6819   -0.6054    1.2060 H   0  0  0  0  0  0  0  0  0  0  0  0
    1.2660    1.0396    2.1929 H   0  0  0  0  0  0  0  0  0  0  0  0
    1.9095   -1.7176    2.3850 H   0  0  0  0  0  0  0  0  0  0  0  0
    2.6136    2.6248    3.5815 H   0  0  0  0  0  0  0  0  0  0  0  0
    3.7270    2.9515    5.7595 H   0  0  0  0  0  0  0  0  0  0  0  0
    5.2348   -0.7464    8.0666 H   0  0  0  0  0  0  0  0  0  0  0  0
    3.4498   -0.5370    8.1024 H   0  0  0  0  0  0  0  0  0  0  0  0
    3.1027   -1.1584   10.3513 H   0  0  0  0  0  0  0  0  0  0  0  0
    3.1899   -0.5006   12.7221 H   0  0  0  0  0  0  0  0  0  0  0  0
    4.6100    1.4015   13.4401 H   0  0  0  0  0  0  0  0  0  0  0  0
    5.9602    2.6405   11.7656 H   0  0  0  0  0  0  0  0  0  0  0  0
    5.8855    1.9960    9.3824 H   0  0  0  0  0  0  0  0  0  0  0  0
    4.2133   -1.3178    6.1096 H   0  0  0  0  0  0  0  0  0  0  0  0
    3.0941   -1.6546    4.0343 H   0  0  0  0  0  0  0  0  0  0  0  0
    0.7305   -1.1095    0.6964 H   0  0  0  0  0  0  0  0  0  0  0  0
    0.6037   -0.1794   -1.8730 H   0  0  0  0  0  0  0  0  0  0  0  0
  1  2  2  0  0  0  0
  2  3  1  0  0  0  0
  2 20  1  0  0  0  0
  3  4  1  0  0  0  0
  3 22  1  0  0  0  0
  3 23  1  0  0  0  0
  4  5  1  0  0  0  0
  4  6  1  0  0  0  0
  4 24  1  0  0  0  0
  5 25  1  0  0  0  0
  6  7  1  0  0  0  0
  6 19  2  0  0  0  0
  7  8  2  0  0  0  0
  7 26  1  0  0  0  0
  8  9  1  0  0  0  0
  8 27  1  0  0  0  0
  9 10  1  0  0  0  0
  9 18  2  0  0  0  0
 10 11  1  0  0  0  0
 11 12  1  0  0  0  0
 11 28  1  0  0  0  0
 11 29  1  0  0  0  0
 12 13  1  0  0  0  0
 12 17  2  0  0  0  0
 13 14  2  0  0  0  0
 13 30  1  0  0  0  0
 14 15  1  0  0  0  0
 14 31  1  0  0  0  0
 15 16  2  0  0  0  0
 15 32  1  0  0  0  0
 16 17  1  0  0  0  0
 16 33  1  0  0  0  0
 17 34  1  0  0  0  0
 18 19  1  0  0  0  0
 18 35  1  0  0  0  0
 19 36  1  0  0  0  0
 20 21  1  0  0  0  0
 20 37  1  0  0  0  0
 21 38  1  0  0  0  0
M  END
>  <Line_Number>
73


> <IC50>
61500

$$$$
