307149.0
 OpenBabel09302502333D

 25 25  0  0  0  0  0  0  0  0999 V2000
    1.2770    0.4590    0.6453 C   0  0  0  0  0  0  0  0  0  0  0  0
    2.4777   -0.0439   -0.0115 N   0  0  0  0  0  0  0  0  0  0  0  0
    3.1322   -1.2023    0.5872 C   0  0  0  0  0  0  0  0  0  0  0  0
    3.1340    0.7081   -0.9816 C   0  0  0  0  0  0  0  0  0  0  0  0
    2.6952    1.9907   -1.3584 C   0  0  0  0  0  0  0  0  0  0  0  0
    3.3423    2.7454   -2.3488 C   0  0  0  0  0  0  0  0  0  0  0  0
    4.4556    2.2232   -3.0057 C   0  0  0  0  0  0  0  0  0  0  0  0
    5.1755    2.9790   -4.0611 C   0  0  0  0  0  0  0  0  0  0  0  0
    6.3666    2.7907   -4.2871 O   0  0  0  0  0  0  0  0  0  0  0  0
    4.4192    3.8566   -4.8083 N   0  0  0  0  0  0  0  0  0  0  0  0
    5.0891    4.4155   -5.9241 O   0  0  0  0  0  0  0  0  0  0  0  0
    4.9259    0.9619   -2.6471 C   0  0  0  0  0  0  0  0  0  0  0  0
    4.2687    0.2211   -1.6551 C   0  0  0  0  0  0  0  0  0  0  0  0
    0.8707   -0.2653    1.3602 H   0  0  0  0  0  0  0  0  0  0  0  0
    0.4860    0.6458   -0.0897 H   0  0  0  0  0  0  0  0  0  0  0  0
    1.4839    1.3806    1.2004 H   0  0  0  0  0  0  0  0  0  0  0  0
    2.5413   -1.6278    1.4064 H   0  0  0  0  0  0  0  0  0  0  0  0
    4.1092   -0.9330    1.0040 H   0  0  0  0  0  0  0  0  0  0  0  0
    3.2588   -2.0009   -0.1519 H   0  0  0  0  0  0  0  0  0  0  0  0
    1.8384    2.4484   -0.8709 H   0  0  0  0  0  0  0  0  0  0  0  0
    2.9754    3.7446   -2.5659 H   0  0  0  0  0  0  0  0  0  0  0  0
    3.4127    3.7626   -4.8945 H   0  0  0  0  0  0  0  0  0  0  0  0
    5.9991    4.0579   -5.8184 H   0  0  0  0  0  0  0  0  0  0  0  0
    5.8004    0.5403   -3.1389 H   0  0  0  0  0  0  0  0  0  0  0  0
    4.6686   -0.7635   -1.4314 H   0  0  0  0  0  0  0  0  0  0  0  0
  1  2  1  0  0  0  0
  1 14  1  0  0  0  0
  1 15  1  0  0  0  0
  1 16  1  0  0  0  0
  2  3  1  0  0  0  0
  2  4  1  0  0  0  0
  3 17  1  0  0  0  0
  3 18  1  0  0  0  0
  3 19  1  0  0  0  0
  4  5  1  0  0  0  0
  4 13  2  0  0  0  0
  5  6  2  0  0  0  0
  5 20  1  0  0  0  0
  6  7  1  0  0  0  0
  6 21  1  0  0  0  0
  7  8  1  0  0  0  0
  7 12  2  0  0  0  0
  8  9  2  0  0  0  0
  8 10  1  0  0  0  0
 10 11  1  0  0  0  0
 10 22  1  0  0  0  0
 11 23  1  0  0  0  0
 12 13  1  0  0  0  0
 12 24  1  0  0  0  0
 13 25  1  0  0  0  0
M  END
>  <Line_Number>
74


> <IC50>
77900

$$$$
