72707601.0
 OpenBabel09302502333D

 25 25  0  0  1  0  0  0  0  0999 V2000
    2.4483   -0.6483   -1.1419 O   0  0  0  0  0  0  0  0  0  0  0  0
    2.1381   -0.0635   -0.1058 C   0  0  0  0  0  0  0  0  0  0  0  0
    2.9386    1.0991    0.4464 C   0  0  0  0  0  0  0  0  0  0  0  0
    2.0495    2.2309    0.9652 C   0  0  3  0  0  0  0  0  0  0  0  0
    1.2675    1.7434    2.0669 O   0  0  0  0  0  0  0  0  0  0  0  0
    2.8399    3.4424    1.4146 C   0  0  0  0  0  0  0  0  0  0  0  0
    2.5831    4.7042    0.8560 C   0  0  0  0  0  0  0  0  0  0  0  0
    3.2831    5.8334    1.2933 C   0  0  0  0  0  0  0  0  0  0  0  0
    4.2424    5.7193    2.2990 C   0  0  0  0  0  0  0  0  0  0  0  0
    4.4971    4.4723    2.8545 C   0  0  0  0  0  0  0  0  0  0  0  0
    5.4147    4.3059    3.8487 O   0  0  0  0  0  0  0  0  0  0  0  0
    3.8137    3.3421    2.4209 C   0  0  0  0  0  0  0  0  0  0  0  0
    1.0895   -0.4798    0.6753 N   0  0  0  0  0  0  0  0  0  0  0  0
    0.2720   -1.5006    0.1391 O   0  0  0  0  0  0  0  0  0  0  0  0
    3.5804    1.4742   -0.3606 H   0  0  0  0  0  0  0  0  0  0  0  0
    3.5839    0.6952    1.2340 H   0  0  0  0  0  0  0  0  0  0  0  0
    1.3368    2.5162    0.1820 H   0  0  0  0  0  0  0  0  0  0  0  0
    1.6505    2.0909    2.8927 H   0  0  0  0  0  0  0  0  0  0  0  0
    1.8304    4.8227    0.0787 H   0  0  0  0  0  0  0  0  0  0  0  0
    3.0741    6.8051    0.8515 H   0  0  0  0  0  0  0  0  0  0  0  0
    4.7708    6.6061    2.6345 H   0  0  0  0  0  0  0  0  0  0  0  0
    5.8179    5.1665    4.0471 H   0  0  0  0  0  0  0  0  0  0  0  0
    4.0403    2.3866    2.8884 H   0  0  0  0  0  0  0  0  0  0  0  0
    0.6631    0.1459    1.3633 H   0  0  0  0  0  0  0  0  0  0  0  0
    0.7349   -1.7209   -0.6971 H   0  0  0  0  0  0  0  0  0  0  0  0
  1  2  2  0  0  0  0
  2  3  1  0  0  0  0
  2 13  1  0  0  0  0
  3  4  1  0  0  0  0
  3 15  1  0  0  0  0
  3 16  1  0  0  0  0
  4  5  1  0  0  0  0
  4  6  1  0  0  0  0
  4 17  1  0  0  0  0
  5 18  1  0  0  0  0
  6  7  1  0  0  0  0
  6 12  2  0  0  0  0
  7  8  2  0  0  0  0
  7 19  1  0  0  0  0
  8  9  1  0  0  0  0
  8 20  1  0  0  0  0
  9 10  2  0  0  0  0
  9 21  1  0  0  0  0
 10 11  1  0  0  0  0
 10 12  1  0  0  0  0
 11 22  1  0  0  0  0
 12 23  1  0  0  0  0
 13 14  1  0  0  0  0
 13 24  1  0  0  0  0
 14 25  1  0  0  0  0
M  END
>  <Line_Number>
75


> <IC50>
131000

$$$$
