72707670.0
 OpenBabel09302502333D

 32 32  0  0  1  0  0  0  0  0999 V2000
    1.0854   -0.4144    0.2579 C   0  0  0  0  0  0  0  0  0  0  0  0
    2.3796    0.0949   -0.1832 N   0  0  0  0  0  0  0  0  0  0  0  0
    3.1134   -0.7218   -1.1462 C   0  0  0  0  0  0  0  0  0  0  0  0
    3.0916    0.9969    0.6095 C   0  0  0  0  0  0  0  0  0  0  0  0
    2.6270    1.4423    1.8574 C   0  0  0  0  0  0  0  0  0  0  0  0
    3.3505    2.3564    2.6413 C   0  0  0  0  0  0  0  0  0  0  0  0
    4.5652    2.8840    2.1937 C   0  0  0  0  0  0  0  0  0  0  0  0
    5.3128    3.9020    3.0345 C   0  0  3  0  0  0  0  0  0  0  0  0
    6.5976    3.3813    3.4050 O   0  0  0  0  0  0  0  0  0  0  0  0
    5.5664    5.2196    2.3060 C   0  0  0  0  0  0  0  0  0  0  0  0
    4.2887    5.9420    1.9420 C   0  0  0  0  0  0  0  0  0  0  0  0
    3.2573    5.9054    2.6063 O   0  0  0  0  0  0  0  0  0  0  0  0
    4.4145    6.7234    0.8128 N   0  0  0  0  0  0  0  0  0  0  0  0
    3.2216    7.3479    0.3768 O   0  0  0  0  0  0  0  0  0  0  0  0
    5.0407    2.4595    0.9508 C   0  0  0  0  0  0  0  0  0  0  0  0
    4.3145    1.5399    0.1820 C   0  0  0  0  0  0  0  0  0  0  0  0
    0.6422   -1.0792   -0.4923 H   0  0  0  0  0  0  0  0  0  0  0  0
    0.3732    0.4062    0.3990 H   0  0  0  0  0  0  0  0  0  0  0  0
    1.1774   -0.9845    1.1884 H   0  0  0  0  0  0  0  0  0  0  0  0
    2.4825   -1.5058   -1.5789 H   0  0  0  0  0  0  0  0  0  0  0  0
    3.9681   -1.2189   -0.6730 H   0  0  0  0  0  0  0  0  0  0  0  0
    3.4658   -0.1113   -1.9845 H   0  0  0  0  0  0  0  0  0  0  0  0
    1.6863    1.0819    2.2639 H   0  0  0  0  0  0  0  0  0  0  0  0
    2.9374    2.6606    3.6017 H   0  0  0  0  0  0  0  0  0  0  0  0
    4.7706    4.0914    3.9704 H   0  0  0  0  0  0  0  0  0  0  0  0
    6.7771    2.5908    2.8691 H   0  0  0  0  0  0  0  0  0  0  0  0
    6.1835    5.0559    1.4134 H   0  0  0  0  0  0  0  0  0  0  0  0
    6.1500    5.8871    2.9521 H   0  0  0  0  0  0  0  0  0  0  0  0
    5.1035    6.5304    0.0927 H   0  0  0  0  0  0  0  0  0  0  0  0
    2.5738    7.0650    1.0578 H   0  0  0  0  0  0  0  0  0  0  0  0
    5.9781    2.8391    0.5525 H   0  0  0  0  0  0  0  0  0  0  0  0
    4.7270    1.2722   -0.7866 H   0  0  0  0  0  0  0  0  0  0  0  0
  1  2  1  0  0  0  0
  1 17  1  0  0  0  0
  1 18  1  0  0  0  0
  1 19  1  0  0  0  0
  2  3  1  0  0  0  0
  2  4  1  0  0  0  0
  3 20  1  0  0  0  0
  3 21  1  0  0  0  0
  3 22  1  0  0  0  0
  4  5  1  0  0  0  0
  4 16  2  0  0  0  0
  5  6  2  0  0  0  0
  5 23  1  0  0  0  0
  6  7  1  0  0  0  0
  6 24  1  0  0  0  0
  7  8  1  0  0  0  0
  7 15  2  0  0  0  0
  8  9  1  0  0  0  0
  8 10  1  0  0  0  0
  8 25  1  0  0  0  0
  9 26  1  0  0  0  0
 10 11  1  0  0  0  0
 10 27  1  0  0  0  0
 10 28  1  0  0  0  0
 11 12  2  0  0  0  0
 11 13  1  0  0  0  0
 13 14  1  0  0  0  0
 13 29  1  0  0  0  0
 14 30  1  0  0  0  0
 15 16  1  0  0  0  0
 15 31  1  0  0  0  0
 16 32  1  0  0  0  0
M  END
>  <Line_Number>
76


> <IC50>
7130

$$$$
