71721723.0
 OpenBabel09302502333D

 25 25  0  0  1  0  0  0  0  0999 V2000
    2.3845   -0.0716   -1.2744 O   0  0  0  0  0  0  0  0  0  0  0  0
    2.0532   -0.0351   -0.0890 C   0  0  0  0  0  0  0  0  0  0  0  0
    2.8401    0.7343    0.9511 C   0  0  0  0  0  0  0  0  0  0  0  0
    1.9395    1.4532    1.9599 C   0  0  3  0  0  0  0  0  0  0  0  0
    1.1909    0.4844    2.7087 O   0  0  0  0  0  0  0  0  0  0  0  0
    2.7085    2.3263    2.9316 C   0  0  0  0  0  0  0  0  0  0  0  0
    2.4712    3.7109    2.9628 C   0  0  0  0  0  0  0  0  0  0  0  0
    3.1612    4.5274    3.8619 C   0  0  0  0  0  0  0  0  0  0  0  0
    2.8426    6.2179    3.8994 Cl  0  0  0  0  0  0  0  0  0  0  0  0
    4.0991    3.9843    4.7373 C   0  0  0  0  0  0  0  0  0  0  0  0
    4.3406    2.6113    4.7269 C   0  0  0  0  0  0  0  0  0  0  0  0
    3.6413    1.7971    3.8368 C   0  0  0  0  0  0  0  0  0  0  0  0
    3.8259    0.4420    3.8656 O   0  0  0  0  0  0  0  0  0  0  0  0
    1.0031   -0.7745    0.3907 N   0  0  0  0  0  0  0  0  0  0  0  0
    0.2075   -1.4354   -0.5726 O   0  0  0  0  0  0  0  0  0  0  0  0
    3.4609    1.4687    0.4230 H   0  0  0  0  0  0  0  0  0  0  0  0
    3.5082    0.0120    1.4317 H   0  0  0  0  0  0  0  0  0  0  0  0
    1.2028    2.0565    1.4154 H   0  0  0  0  0  0  0  0  0  0  0  0
    1.8030    0.1449    3.3939 H   0  0  0  0  0  0  0  0  0  0  0  0
    1.7355    4.1568    2.2964 H   0  0  0  0  0  0  0  0  0  0  0  0
    4.6322    4.6222    5.4378 H   0  0  0  0  0  0  0  0  0  0  0  0
    5.0586    2.1958    5.4280 H   0  0  0  0  0  0  0  0  0  0  0  0
    4.5696    0.2391    4.4610 H   0  0  0  0  0  0  0  0  0  0  0  0
    0.5655   -0.5571    1.2893 H   0  0  0  0  0  0  0  0  0  0  0  0
    0.6811   -1.2348   -1.4080 H   0  0  0  0  0  0  0  0  0  0  0  0
  1  2  2  0  0  0  0
  2  3  1  0  0  0  0
  2 14  1  0  0  0  0
  3  4  1  0  0  0  0
  3 16  1  0  0  0  0
  3 17  1  0  0  0  0
  4  5  1  0  0  0  0
  4  6  1  0  0  0  0
  4 18  1  0  0  0  0
  5 19  1  0  0  0  0
  6  7  1  0  0  0  0
  6 12  2  0  0  0  0
  7  8  2  0  0  0  0
  7 20  1  0  0  0  0
  8  9  1  0  0  0  0
  8 10  1  0  0  0  0
 10 11  2  0  0  0  0
 10 21  1  0  0  0  0
 11 12  1  0  0  0  0
 11 22  1  0  0  0  0
 12 13  1  0  0  0  0
 13 23  1  0  0  0  0
 14 15  1  0  0  0  0
 14 24  1  0  0  0  0
 15 25  1  0  0  0  0
M  END
>  <Line_Number>
77


> <IC50>
1280

$$$$
