71721721.0
 OpenBabel09302502333D

 24 24  0  0  1  0  0  0  0  0999 V2000
    2.6102   -1.0457    0.6454 O   0  0  0  0  0  0  0  0  0  0  0  0
    2.2243   -0.0121    0.0977 C   0  0  0  0  0  0  0  0  0  0  0  0
    2.9902    0.6490   -1.0321 C   0  0  0  0  0  0  0  0  0  0  0  0
    2.0664    1.1811   -2.1286 C   0  0  3  0  0  0  0  0  0  0  0  0
    1.2405    2.2229   -1.5901 O   0  0  0  0  0  0  0  0  0  0  0  0
    2.8049    1.7199   -3.3371 C   0  0  0  0  0  0  0  0  0  0  0  0
    2.5699    1.1613   -4.6045 C   0  0  0  0  0  0  0  0  0  0  0  0
    3.2111    1.6635   -5.7411 C   0  0  0  0  0  0  0  0  0  0  0  0
    4.0936    2.7355   -5.6292 C   0  0  0  0  0  0  0  0  0  0  0  0
    4.3358    3.2973   -4.3793 C   0  0  0  0  0  0  0  0  0  0  0  0
    5.4125    4.6323   -4.2364 Cl  0  0  0  0  0  0  0  0  0  0  0  0
    3.7052    2.7946   -3.2388 C   0  0  0  0  0  0  0  0  0  0  0  0
    1.1200    0.6731    0.5427 N   0  0  0  0  0  0  0  0  0  0  0  0
    0.3519    0.0353    1.5414 O   0  0  0  0  0  0  0  0  0  0  0  0
    3.6696   -0.1016   -1.4557 H   0  0  0  0  0  0  0  0  0  0  0  0
    3.5982    1.4478   -0.5914 H   0  0  0  0  0  0  0  0  0  0  0  0
    1.3831    0.3811   -2.4389 H   0  0  0  0  0  0  0  0  0  0  0  0
    1.7932    3.0144   -1.4627 H   0  0  0  0  0  0  0  0  0  0  0  0
    1.8748    0.3312   -4.7229 H   0  0  0  0  0  0  0  0  0  0  0  0
    3.0157    1.2212   -6.7154 H   0  0  0  0  0  0  0  0  0  0  0  0
    4.5831    3.1291   -6.5162 H   0  0  0  0  0  0  0  0  0  0  0  0
    3.9145    3.2566   -2.2776 H   0  0  0  0  0  0  0  0  0  0  0  0
    0.6292    1.3380   -0.0608 H   0  0  0  0  0  0  0  0  0  0  0  0
    0.8814   -0.7746    1.7204 H   0  0  0  0  0  0  0  0  0  0  0  0
  1  2  2  0  0  0  0
  2  3  1  0  0  0  0
  2 13  1  0  0  0  0
  3  4  1  0  0  0  0
  3 15  1  0  0  0  0
  3 16  1  0  0  0  0
  4  5  1  0  0  0  0
  4  6  1  0  0  0  0
  4 17  1  0  0  0  0
  5 18  1  0  0  0  0
  6  7  1  0  0  0  0
  6 12  2  0  0  0  0
  7  8  2  0  0  0  0
  7 19  1  0  0  0  0
  8  9  1  0  0  0  0
  8 20  1  0  0  0  0
  9 10  2  0  0  0  0
  9 21  1  0  0  0  0
 10 11  1  0  0  0  0
 10 12  1  0  0  0  0
 12 22  1  0  0  0  0
 13 14  1  0  0  0  0
 13 23  1  0  0  0  0
 14 24  1  0  0  0  0
M  END
>  <Line_Number>
78


> <IC50>
83

$$$$
