155535566.0
 OpenBabel09302502333D

 27 27  0  0  1  0  0  0  0  0999 V2000
    1.0855   -1.4297   -1.9455 C   0  0  0  0  0  0  0  0  0  0  0  0
    2.5043   -1.1450   -2.0153 N   0  0  0  0  0  0  0  0  0  0  0  0
    3.2783   -2.3262   -1.9856 O   0  0  0  0  0  0  0  0  0  0  0  0
    3.0315   -0.0472   -1.3585 C   0  0  0  0  0  0  0  0  0  0  0  0
    2.3236    0.8423   -0.8804 O   0  0  0  0  0  0  0  0  0  0  0  0
    4.5417    0.0502   -1.2720 C   0  0  0  0  0  0  0  0  0  0  0  0
    5.1675    0.1284   -2.6624 C   0  0  3  0  0  0  0  0  0  0  0  0
    4.6377    1.2167   -3.4153 O   0  0  0  0  0  0  0  0  0  0  0  0
    6.6894    0.1746   -2.6107 C   0  0  0  0  0  0  0  0  0  0  0  0
    7.3724   -1.0571   -2.6759 C   0  0  0  0  0  0  0  0  0  0  0  0
    8.7686   -1.1117   -2.6665 C   0  0  0  0  0  0  0  0  0  0  0  0
    9.5025    0.0659   -2.5937 C   0  0  0  0  0  0  0  0  0  0  0  0
   11.2209    0.0018   -2.6095 Cl  0  0  0  0  0  0  0  0  0  0  0  0
    8.8554    1.2933   -2.5004 C   0  0  0  0  0  0  0  0  0  0  0  0
    7.4562    1.3476   -2.4898 C   0  0  0  0  0  0  0  0  0  0  0  0
    6.7468    2.9131   -2.2963 Cl  0  0  0  0  0  0  0  0  0  0  0  0
    0.8561   -2.3018   -2.5641 H   0  0  0  0  0  0  0  0  0  0  0  0
    0.5334   -0.5612   -2.3159 H   0  0  0  0  0  0  0  0  0  0  0  0
    0.8017   -1.6183   -0.9070 H   0  0  0  0  0  0  0  0  0  0  0  0
    3.2810   -2.5731   -2.9305 H   0  0  0  0  0  0  0  0  0  0  0  0
    4.9258   -0.8015   -0.6985 H   0  0  0  0  0  0  0  0  0  0  0  0
    4.7785    0.9525   -0.6934 H   0  0  0  0  0  0  0  0  0  0  0  0
    4.8890   -0.7569   -3.2437 H   0  0  0  0  0  0  0  0  0  0  0  0
    4.8425    2.0408   -2.9338 H   0  0  0  0  0  0  0  0  0  0  0  0
    6.8158   -1.9906   -2.7390 H   0  0  0  0  0  0  0  0  0  0  0  0
    9.2703   -2.0738   -2.7229 H   0  0  0  0  0  0  0  0  0  0  0  0
    9.4386    2.2083   -2.4339 H   0  0  0  0  0  0  0  0  0  0  0  0
  1  2  1  0  0  0  0
  1 17  1  0  0  0  0
  1 18  1  0  0  0  0
  1 19  1  0  0  0  0
  2  3  1  0  0  0  0
  2  4  1  0  0  0  0
  3 20  1  0  0  0  0
  4  5  2  0  0  0  0
  4  6  1  0  0  0  0
  6  7  1  0  0  0  0
  6 21  1  0  0  0  0
  6 22  1  0  0  0  0
  7  8  1  0  0  0  0
  7  9  1  0  0  0  0
  7 23  1  0  0  0  0
  8 24  1  0  0  0  0
  9 10  1  0  0  0  0
  9 15  2  0  0  0  0
 10 11  2  0  0  0  0
 10 25  1  0  0  0  0
 11 12  1  0  0  0  0
 11 26  1  0  0  0  0
 12 13  1  0  0  0  0
 12 14  2  0  0  0  0
 14 15  1  0  0  0  0
 14 27  1  0  0  0  0
 15 16  1  0  0  0  0
M  END
>  <Line_Number>
79


> <IC50>
367000

$$$$
