49844562.0
 OpenBabel09302502333D

 36 37  0  0  0  0  0  0  0  0999 V2000
    1.0184   -0.2207   -0.0197 C   0  0  0  0  0  0  0  0  0  0  0  0
    2.3976    0.0844   -0.1878 O   0  0  0  0  0  0  0  0  0  0  0  0
    3.0668    0.5563    0.9098 C   0  0  0  0  0  0  0  0  0  0  0  0
    2.6475    0.2957    2.2192 C   0  0  0  0  0  0  0  0  0  0  0  0
    3.3982    0.7264    3.3155 C   0  0  0  0  0  0  0  0  0  0  0  0
    4.6091    1.3972    3.1381 C   0  0  0  0  0  0  0  0  0  0  0  0
    5.4479    1.8800    4.3026 C   0  0  0  0  0  0  0  0  0  0  0  0
    5.3888    0.9828    5.5481 C   0  0  0  0  0  0  0  0  0  0  0  0
    6.2555    1.4978    6.6690 C   0  0  0  0  0  0  0  0  0  0  0  0
    7.5668    1.0316    6.8287 C   0  0  0  0  0  0  0  0  0  0  0  0
    8.3641    1.5095    7.8701 C   0  0  0  0  0  0  0  0  0  0  0  0
    7.8606    2.4604    8.7575 C   0  0  0  0  0  0  0  0  0  0  0  0
    6.5590    2.9311    8.6006 C   0  0  0  0  0  0  0  0  0  0  0  0
    5.9336    4.1013    9.6952 Cl  0  0  0  0  0  0  0  0  0  0  0  0
    5.7569    2.4568    7.5628 C   0  0  0  0  0  0  0  0  0  0  0  0
    5.0214    1.6736    1.8241 C   0  0  0  0  0  0  0  0  0  0  0  0
    4.2589    1.2712    0.7143 C   0  0  0  0  0  0  0  0  0  0  0  0
    4.8252    1.6162   -0.4878 O   0  0  0  0  0  0  0  0  0  0  0  0
    3.9236    1.8885   -1.5552 C   0  0  0  0  0  0  0  0  0  0  0  0
    0.6114   -0.4763   -1.0024 H   0  0  0  0  0  0  0  0  0  0  0  0
    0.4683    0.6483    0.3575 H   0  0  0  0  0  0  0  0  0  0  0  0
    0.8753   -1.0922    0.6272 H   0  0  0  0  0  0  0  0  0  0  0  0
    1.7444   -0.2667    2.4294 H   0  0  0  0  0  0  0  0  0  0  0  0
    3.0157    0.5058    4.3075 H   0  0  0  0  0  0  0  0  0  0  0  0
    5.1228    2.8968    4.5561 H   0  0  0  0  0  0  0  0  0  0  0  0
    6.4955    1.9561    3.9803 H   0  0  0  0  0  0  0  0  0  0  0  0
    5.6867   -0.0423    5.2909 H   0  0  0  0  0  0  0  0  0  0  0  0
    4.3640    0.9075    5.9308 H   0  0  0  0  0  0  0  0  0  0  0  0
    7.9727    0.2878    6.1458 H   0  0  0  0  0  0  0  0  0  0  0  0
    9.3794    1.1387    7.9900 H   0  0  0  0  0  0  0  0  0  0  0  0
    8.4843    2.8275    9.5673 H   0  0  0  0  0  0  0  0  0  0  0  0
    4.7411    2.8299    7.4526 H   0  0  0  0  0  0  0  0  0  0  0  0
    5.9476    2.2172    1.6482 H   0  0  0  0  0  0  0  0  0  0  0  0
    4.4563    2.4995   -2.2907 H   0  0  0  0  0  0  0  0  0  0  0  0
    3.0502    2.4617   -1.2246 H   0  0  0  0  0  0  0  0  0  0  0  0
    3.6301    0.9636   -2.0597 H   0  0  0  0  0  0  0  0  0  0  0  0
  1  2  1  0  0  0  0
  1 20  1  0  0  0  0
  1 21  1  0  0  0  0
  1 22  1  0  0  0  0
  2  3  1  0  0  0  0
  3  4  1  0  0  0  0
  3 17  2  0  0  0  0
  4  5  2  0  0  0  0
  4 23  1  0  0  0  0
  5  6  1  0  0  0  0
  5 24  1  0  0  0  0
  6  7  1  0  0  0  0
  6 16  2  0  0  0  0
  7  8  1  0  0  0  0
  7 25  1  0  0  0  0
  7 26  1  0  0  0  0
  8  9  1  0  0  0  0
  8 27  1  0  0  0  0
  8 28  1  0  0  0  0
  9 10  1  0  0  0  0
  9 15  2  0  0  0  0
 10 11  2  0  0  0  0
 10 29  1  0  0  0  0
 11 12  1  0  0  0  0
 11 30  1  0  0  0  0
 12 13  2  0  0  0  0
 12 31  1  0  0  0  0
 13 14  1  0  0  0  0
 13 15  1  0  0  0  0
 15 32  1  0  0  0  0
 16 17  1  0  0  0  0
 16 33  1  0  0  0  0
 17 18  1  0  0  0  0
 18 19  1  0  0  0  0
 19 34  1  0  0  0  0
 19 35  1  0  0  0  0
 19 36  1  0  0  0  0
M  END
>  <Line_Number>
7


> <IC50>
235000

$$$$
