155546770.0
 OpenBabel09302502333D

 41 42  0  0  1  0  0  0  0  0999 V2000
    0.8177    0.7039   -1.7612 C   0  0  0  0  0  0  0  0  0  0  0  0
    2.2640    0.7657   -1.7555 N   0  0  0  0  0  0  0  0  0  0  0  0
    2.8385   -0.4599   -2.1704 O   0  0  0  0  0  0  0  0  0  0  0  0
    2.9104    1.4029   -0.7073 C   0  0  0  0  0  0  0  0  0  0  0  0
    2.3140    2.1017    0.1169 O   0  0  0  0  0  0  0  0  0  0  0  0
    4.4127    1.2383   -0.6275 C   0  0  0  0  0  0  0  0  0  0  0  0
    5.0940    1.8532   -1.8475 C   0  0  3  0  0  0  0  0  0  0  0  0
    4.7261    3.2329   -1.9458 O   0  0  0  0  0  0  0  0  0  0  0  0
    6.6099    1.7827   -1.8691 C   0  0  0  0  0  0  0  0  0  0  0  0
    7.3825    1.1962   -0.8586 C   0  0  0  0  0  0  0  0  0  0  0  0
    8.7759    1.1435   -0.9672 C   0  0  0  0  0  0  0  0  0  0  0  0
    9.4183    1.6601   -2.0913 C   0  0  0  0  0  0  0  0  0  0  0  0
   10.7758    1.4856   -2.1330 O   0  0  0  0  0  0  0  0  0  0  0  0
   11.3389    1.5316   -3.4461 C   0  0  0  0  0  0  0  0  0  0  0  0
   12.6656    0.8168   -3.4757 C   0  0  0  0  0  0  0  0  0  0  0  0
   12.7624   -0.5132   -3.0423 C   0  0  0  0  0  0  0  0  0  0  0  0
   13.9671   -1.2085   -3.1604 C   0  0  0  0  0  0  0  0  0  0  0  0
   15.0826   -0.5811   -3.7128 C   0  0  0  0  0  0  0  0  0  0  0  0
   14.9976    0.7427   -4.1406 C   0  0  0  0  0  0  0  0  0  0  0  0
   13.7947    1.4391   -4.0245 C   0  0  0  0  0  0  0  0  0  0  0  0
    8.6658    2.2953   -3.0778 C   0  0  0  0  0  0  0  0  0  0  0  0
    7.2784    2.3439   -2.9732 C   0  0  0  0  0  0  0  0  0  0  0  0
    0.4780    0.1796   -2.6571 H   0  0  0  0  0  0  0  0  0  0  0  0
    0.4230    1.7239   -1.7621 H   0  0  0  0  0  0  0  0  0  0  0  0
    0.4696    0.1855   -0.8641 H   0  0  0  0  0  0  0  0  0  0  0  0
    2.8815   -0.3351   -3.1366 H   0  0  0  0  0  0  0  0  0  0  0  0
    4.6572    0.1764   -0.5118 H   0  0  0  0  0  0  0  0  0  0  0  0
    4.7411    1.7501    0.2867 H   0  0  0  0  0  0  0  0  0  0  0  0
    4.7301    1.3610   -2.7584 H   0  0  0  0  0  0  0  0  0  0  0  0
    5.2805    3.7261   -1.3130 H   0  0  0  0  0  0  0  0  0  0  0  0
    6.9258    0.7650    0.0276 H   0  0  0  0  0  0  0  0  0  0  0  0
    9.3614    0.6760   -0.1788 H   0  0  0  0  0  0  0  0  0  0  0  0
   11.4654    2.5811   -3.7373 H   0  0  0  0  0  0  0  0  0  0  0  0
   10.6946    1.0272   -4.1790 H   0  0  0  0  0  0  0  0  0  0  0  0
   11.8943   -1.0147   -2.6214 H   0  0  0  0  0  0  0  0  0  0  0  0
   14.0312   -2.2413   -2.8289 H   0  0  0  0  0  0  0  0  0  0  0  0
   16.0170   -1.1256   -3.8136 H   0  0  0  0  0  0  0  0  0  0  0  0
   15.8671    1.2308   -4.5728 H   0  0  0  0  0  0  0  0  0  0  0  0
   13.7416    2.4673   -4.3755 H   0  0  0  0  0  0  0  0  0  0  0  0
    9.1285    2.7603   -3.9418 H   0  0  0  0  0  0  0  0  0  0  0  0
    6.7038    2.8262   -3.7654 H   0  0  0  0  0  0  0  0  0  0  0  0
  1  2  1  0  0  0  0
  1 23  1  0  0  0  0
  1 24  1  0  0  0  0
  1 25  1  0  0  0  0
  2  3  1  0  0  0  0
  2  4  1  0  0  0  0
  3 26  1  0  0  0  0
  4  5  2  0  0  0  0
  4  6  1  0  0  0  0
  6  7  1  0  0  0  0
  6 27  1  0  0  0  0
  6 28  1  0  0  0  0
  7  8  1  0  0  0  0
  7  9  1  0  0  0  0
  7 29  1  0  0  0  0
  8 30  1  0  0  0  0
  9 10  1  0  0  0  0
  9 22  2  0  0  0  0
 10 11  2  0  0  0  0
 10 31  1  0  0  0  0
 11 12  1  0  0  0  0
 11 32  1  0  0  0  0
 12 13  1  0  0  0  0
 12 21  2  0  0  0  0
 13 14  1  0  0  0  0
 14 15  1  0  0  0  0
 14 33  1  0  0  0  0
 14 34  1  0  0  0  0
 15 16  1  0  0  0  0
 15 20  2  0  0  0  0
 16 17  2  0  0  0  0
 16 35  1  0  0  0  0
 17 18  1  0  0  0  0
 17 36  1  0  0  0  0
 18 19  2  0  0  0  0
 18 37  1  0  0  0  0
 19 20  1  0  0  0  0
 19 38  1  0  0  0  0
 20 39  1  0  0  0  0
 21 22  1  0  0  0  0
 21 40  1  0  0  0  0
 22 41  1  0  0  0  0
M  END
>  <Line_Number>
80


> <IC50>
198000

$$$$
