155565349.0
 OpenBabel09302502333D

 27 27  0  0  1  0  0  0  0  0999 V2000
    0.9831    0.1102   -2.3937 C   0  0  0  0  0  0  0  0  0  0  0  0
    2.4186    0.2951   -2.3491 N   0  0  0  0  0  0  0  0  0  0  0  0
    3.1014   -0.8155   -2.8949 O   0  0  0  0  0  0  0  0  0  0  0  0
    3.0036    0.8688   -1.2348 C   0  0  0  0  0  0  0  0  0  0  0  0
    2.3527    1.4689   -0.3742 O   0  0  0  0  0  0  0  0  0  0  0  0
    4.5139    0.7896   -1.1290 C   0  0  0  0  0  0  0  0  0  0  0  0
    5.1734    1.6432   -2.2187 C   0  0  3  0  0  0  0  0  0  0  0  0
    4.7549    3.0072   -2.1643 O   0  0  0  0  0  0  0  0  0  0  0  0
    6.6938    1.6075   -2.1952 C   0  0  0  0  0  0  0  0  0  0  0  0
    7.4268    1.0325   -3.2558 C   0  0  0  0  0  0  0  0  0  0  0  0
    6.6681    0.3421   -4.6535 Cl  0  0  0  0  0  0  0  0  0  0  0  0
    8.8286    0.9971   -3.2421 C   0  0  0  0  0  0  0  0  0  0  0  0
    9.5361    1.5206   -2.1679 C   0  0  0  0  0  0  0  0  0  0  0  0
    8.8425    2.1016   -1.1135 C   0  0  0  0  0  0  0  0  0  0  0  0
    7.4424    2.1598   -1.1316 C   0  0  0  0  0  0  0  0  0  0  0  0
    6.7109    2.9834    0.2071 Cl  0  0  0  0  0  0  0  0  0  0  0  0
    0.7013   -0.3192   -3.3586 H   0  0  0  0  0  0  0  0  0  0  0  0
    0.4960    1.0812   -2.2658 H   0  0  0  0  0  0  0  0  0  0  0  0
    0.6757   -0.5541   -1.5814 H   0  0  0  0  0  0  0  0  0  0  0  0
    3.1854   -0.5503   -3.8310 H   0  0  0  0  0  0  0  0  0  0  0  0
    4.8386   -0.2568   -1.1870 H   0  0  0  0  0  0  0  0  0  0  0  0
    4.7672    1.1339   -0.1261 H   0  0  0  0  0  0  0  0  0  0  0  0
    4.8010    1.2953   -3.1831 H   0  0  0  0  0  0  0  0  0  0  0  0
    4.8330    3.3056   -1.2408 H   0  0  0  0  0  0  0  0  0  0  0  0
    9.3751    0.5621   -4.0761 H   0  0  0  0  0  0  0  0  0  0  0  0
   10.6225    1.4863   -2.1556 H   0  0  0  0  0  0  0  0  0  0  0  0
    9.3987    2.5237   -0.2786 H   0  0  0  0  0  0  0  0  0  0  0  0
  1  2  1  0  0  0  0
  1 17  1  0  0  0  0
  1 18  1  0  0  0  0
  1 19  1  0  0  0  0
  2  3  1  0  0  0  0
  2  4  1  0  0  0  0
  3 20  1  0  0  0  0
  4  5  2  0  0  0  0
  4  6  1  0  0  0  0
  6  7  1  0  0  0  0
  6 21  1  0  0  0  0
  6 22  1  0  0  0  0
  7  8  1  0  0  0  0
  7  9  1  0  0  0  0
  7 23  1  0  0  0  0
  8 24  1  0  0  0  0
  9 10  1  0  0  0  0
  9 15  2  0  0  0  0
 10 11  1  0  0  0  0
 10 12  2  0  0  0  0
 12 13  1  0  0  0  0
 12 25  1  0  0  0  0
 13 14  2  0  0  0  0
 13 26  1  0  0  0  0
 14 15  1  0  0  0  0
 14 27  1  0  0  0  0
 15 16  1  0  0  0  0
M  END
>  <Line_Number>
81


> <IC50>
77900

$$$$
