155514177.0
 OpenBabel09302502333D

 27 27  0  0  1  0  0  0  0  0999 V2000
    1.1334    1.8612    0.3839 C   0  0  0  0  0  0  0  0  0  0  0  0
    2.5713    1.6559    0.3888 N   0  0  0  0  0  0  0  0  0  0  0  0
    3.2578    2.7006    1.0376 O   0  0  0  0  0  0  0  0  0  0  0  0
    3.2075    1.0106   -0.6584 C   0  0  0  0  0  0  0  0  0  0  0  0
    2.6000    0.3890   -1.5311 O   0  0  0  0  0  0  0  0  0  0  0  0
    4.7251    1.0440   -0.6374 C   0  0  0  0  0  0  0  0  0  0  0  0
    5.2984    2.2137   -1.4438 C   0  0  3  0  0  0  0  0  0  0  0  0
    4.9866    3.4894   -0.8934 O   0  0  0  0  0  0  0  0  0  0  0  0
    6.8136    2.1574   -1.4959 C   0  0  0  0  0  0  0  0  0  0  0  0
    7.4968    2.0624   -2.7185 C   0  0  0  0  0  0  0  0  0  0  0  0
    8.8911    2.0435   -2.7515 C   0  0  0  0  0  0  0  0  0  0  0  0
    9.6136    2.1219   -1.5652 C   0  0  0  0  0  0  0  0  0  0  0  0
   10.9509    2.1065   -1.6001 F   0  0  0  0  0  0  0  0  0  0  0  0
    8.9643    2.2179   -0.3432 C   0  0  0  0  0  0  0  0  0  0  0  0
    7.5683    2.2402   -0.3067 C   0  0  0  0  0  0  0  0  0  0  0  0
    0.8295    2.3732    1.3024 H   0  0  0  0  0  0  0  0  0  0  0  0
    0.6421    0.8848    0.3299 H   0  0  0  0  0  0  0  0  0  0  0  0
    0.8509    2.4518   -0.4901 H   0  0  0  0  0  0  0  0  0  0  0  0
    3.1161    2.4775    1.9796 H   0  0  0  0  0  0  0  0  0  0  0  0
    5.0709    0.0905   -1.0570 H   0  0  0  0  0  0  0  0  0  0  0  0
    5.0602    1.0611    0.4031 H   0  0  0  0  0  0  0  0  0  0  0  0
    4.8856    2.1951   -2.4634 H   0  0  0  0  0  0  0  0  0  0  0  0
    4.4229    3.3622   -0.1087 H   0  0  0  0  0  0  0  0  0  0  0  0
    6.9433    2.0150   -3.6567 H   0  0  0  0  0  0  0  0  0  0  0  0
    9.4244    1.9793   -3.6964 H   0  0  0  0  0  0  0  0  0  0  0  0
    9.5424    2.2887    0.5731 H   0  0  0  0  0  0  0  0  0  0  0  0
    7.0692    2.3486    0.6493 H   0  0  0  0  0  0  0  0  0  0  0  0
  1  2  1  0  0  0  0
  1 16  1  0  0  0  0
  1 17  1  0  0  0  0
  1 18  1  0  0  0  0
  2  3  1  0  0  0  0
  2  4  1  0  0  0  0
  3 19  1  0  0  0  0
  4  5  2  0  0  0  0
  4  6  1  0  0  0  0
  6  7  1  0  0  0  0
  6 20  1  0  0  0  0
  6 21  1  0  0  0  0
  7  8  1  0  0  0  0
  7  9  1  0  0  0  0
  7 22  1  0  0  0  0
  8 23  1  0  0  0  0
  9 10  1  0  0  0  0
  9 15  2  0  0  0  0
 10 11  2  0  0  0  0
 10 24  1  0  0  0  0
 11 12  1  0  0  0  0
 11 25  1  0  0  0  0
 12 13  1  0  0  0  0
 12 14  2  0  0  0  0
 14 15  1  0  0  0  0
 14 26  1  0  0  0  0
 15 27  1  0  0  0  0
M  END
>  <Line_Number>
82


> <IC50>
77200

$$$$
