155560525.0
 OpenBabel09302502333D

 41 42  0  0  1  0  0  0  0  0999 V2000
    0.9878   -0.0835    1.3691 C   0  0  0  0  0  0  0  0  0  0  0  0
    2.4181    0.1905    1.2992 N   0  0  0  0  0  0  0  0  0  0  0  0
    3.2449   -0.9457    1.3119 O   0  0  0  0  0  0  0  0  0  0  0  0
    2.9654    1.4507    1.2025 C   0  0  0  0  0  0  0  0  0  0  0  0
    2.2668    2.4650    1.2541 O   0  0  0  0  0  0  0  0  0  0  0  0
    4.4670    1.5506    0.9386 C   0  0  0  0  0  0  0  0  0  0  0  0
    5.3057    1.5352    2.2133 C   0  0  3  0  0  0  0  0  0  0  0  0
    5.0621    0.3281    2.9623 O   0  0  0  0  0  0  0  0  0  0  0  0
    6.8323    1.6384    2.1301 C   0  0  0  0  0  0  0  0  0  0  0  0
    7.4976    1.5392    3.3852 C   0  0  0  0  0  0  0  0  0  0  0  0
    8.8872    1.4989    3.5003 C   0  0  0  0  0  0  0  0  0  0  0  0
    9.6358    1.4658    5.0449 Cl  0  0  0  0  0  0  0  0  0  0  0  0
    9.6656    1.4666    2.3609 C   0  0  0  0  0  0  0  0  0  0  0  0
    9.0415    1.5671    1.1221 C   0  0  0  0  0  0  0  0  0  0  0  0
    7.6452    1.7773    0.9868 C   0  0  0  0  0  0  0  0  0  0  0  0
    7.1122    2.1973   -0.2276 O   0  0  0  0  0  0  0  0  0  0  0  0
    8.1307    2.7384   -1.1030 C   0  0  0  0  0  0  0  0  0  0  0  0
    7.7757    3.7280   -2.1898 C   0  0  0  0  0  0  0  0  0  0  0  0
    6.5734    4.4275   -2.2373 C   0  0  0  0  0  0  0  0  0  0  0  0
    6.4227    5.4826   -3.1455 C   0  0  0  0  0  0  0  0  0  0  0  0
    7.4671    5.8458   -4.0011 C   0  0  0  0  0  0  0  0  0  0  0  0
    8.6615    5.1383   -3.9773 C   0  0  0  0  0  0  0  0  0  0  0  0
    8.8135    4.0852   -3.0814 C   0  0  0  0  0  0  0  0  0  0  0  0
    0.7988   -1.1622    1.3845 H   0  0  0  0  0  0  0  0  0  0  0  0
    0.5117    0.3531    0.4852 H   0  0  0  0  0  0  0  0  0  0  0  0
    0.5593    0.3848    2.2582 H   0  0  0  0  0  0  0  0  0  0  0  0
    2.8624   -1.5016    0.6066 H   0  0  0  0  0  0  0  0  0  0  0  0
    4.6195    2.4937    0.4041 H   0  0  0  0  0  0  0  0  0  0  0  0
    4.7555    0.7438    0.2588 H   0  0  0  0  0  0  0  0  0  0  0  0
    4.9661    2.3581    2.8561 H   0  0  0  0  0  0  0  0  0  0  0  0
    4.6795   -0.3409    2.3624 H   0  0  0  0  0  0  0  0  0  0  0  0
    6.9026    1.4870    4.2893 H   0  0  0  0  0  0  0  0  0  0  0  0
   10.7486    1.4040    2.4210 H   0  0  0  0  0  0  0  0  0  0  0  0
    9.7083    1.5258    0.2634 H   0  0  0  0  0  0  0  0  0  0  0  0
    8.6387    1.8911   -1.5836 H   0  0  0  0  0  0  0  0  0  0  0  0
    8.8392    3.3254   -0.5017 H   0  0  0  0  0  0  0  0  0  0  0  0
    5.7682    4.1911   -1.5482 H   0  0  0  0  0  0  0  0  0  0  0  0
    5.4949    6.0480   -3.1656 H   0  0  0  0  0  0  0  0  0  0  0  0
    7.3537    6.6906   -4.6754 H   0  0  0  0  0  0  0  0  0  0  0  0
    9.4861    5.4245   -4.6266 H   0  0  0  0  0  0  0  0  0  0  0  0
    9.7718    3.5685   -3.0407 H   0  0  0  0  0  0  0  0  0  0  0  0
  1  2  1  0  0  0  0
  1 24  1  0  0  0  0
  1 25  1  0  0  0  0
  1 26  1  0  0  0  0
  2  3  1  0  0  0  0
  2  4  1  0  0  0  0
  3 27  1  0  0  0  0
  4  5  2  0  0  0  0
  4  6  1  0  0  0  0
  6  7  1  0  0  0  0
  6 28  1  0  0  0  0
  6 29  1  0  0  0  0
  7  8  1  0  0  0  0
  7  9  1  0  0  0  0
  7 30  1  0  0  0  0
  8 31  1  0  0  0  0
  9 10  1  0  0  0  0
  9 15  2  0  0  0  0
 10 11  2  0  0  0  0
 10 32  1  0  0  0  0
 11 12  1  0  0  0  0
 11 13  1  0  0  0  0
 13 14  2  0  0  0  0
 13 33  1  0  0  0  0
 14 15  1  0  0  0  0
 14 34  1  0  0  0  0
 15 16  1  0  0  0  0
 16 17  1  0  0  0  0
 17 18  1  0  0  0  0
 17 35  1  0  0  0  0
 17 36  1  0  0  0  0
 18 19  1  0  0  0  0
 18 23  2  0  0  0  0
 19 20  2  0  0  0  0
 19 37  1  0  0  0  0
 20 21  1  0  0  0  0
 20 38  1  0  0  0  0
 21 22  2  0  0  0  0
 21 39  1  0  0  0  0
 22 23  1  0  0  0  0
 22 40  1  0  0  0  0
 23 41  1  0  0  0  0
M  END
>  <Line_Number>
83


> <IC50>
26200

$$$$
