71727110.0
 OpenBabel09302502333D

 28 28  0  0  1  0  0  0  0  0999 V2000
    1.1417    2.1169   -1.0784 C   0  0  0  0  0  0  0  0  0  0  0  0
    2.5709    2.1479   -0.8492 N   0  0  0  0  0  0  0  0  0  0  0  0
    3.3015    2.3608   -2.0342 O   0  0  0  0  0  0  0  0  0  0  0  0
    3.1529    1.3850    0.1460 C   0  0  0  0  0  0  0  0  0  0  0  0
    2.4865    0.7737    0.9787 O   0  0  0  0  0  0  0  0  0  0  0  0
    4.6710    1.3351    0.1841 C   0  0  0  0  0  0  0  0  0  0  0  0
    5.2714    2.7267    0.3594 C   0  0  3  0  0  0  0  0  0  0  0  0
    4.7514    3.3380    1.5415 O   0  0  0  0  0  0  0  0  0  0  0  0
    6.7942    2.6884    0.3670 C   0  0  0  0  0  0  0  0  0  0  0  0
    7.4736    2.7837   -0.8587 C   0  0  0  0  0  0  0  0  0  0  0  0
    8.8697    2.7837   -0.9014 C   0  0  0  0  0  0  0  0  0  0  0  0
    9.6773    2.9194   -2.4145 Cl  0  0  0  0  0  0  0  0  0  0  0  0
    9.6106    2.6786    0.2702 C   0  0  0  0  0  0  0  0  0  0  0  0
    8.9537    2.5606    1.4941 C   0  0  0  0  0  0  0  0  0  0  0  0
    7.5588    2.5586    1.5362 C   0  0  0  0  0  0  0  0  0  0  0  0
    6.9170    2.4340    2.7372 O   0  0  0  0  0  0  0  0  0  0  0  0
    0.8830    2.8103   -1.8859 H   0  0  0  0  0  0  0  0  0  0  0  0
    0.6352    2.4216   -0.1580 H   0  0  0  0  0  0  0  0  0  0  0  0
    0.8289    1.1022   -1.3392 H   0  0  0  0  0  0  0  0  0  0  0  0
    3.1791    3.3223   -2.1598 H   0  0  0  0  0  0  0  0  0  0  0  0
    5.0379    0.8387   -0.7235 H   0  0  0  0  0  0  0  0  0  0  0  0
    4.9521    0.6953    1.0328 H   0  0  0  0  0  0  0  0  0  0  0  0
    4.9614    3.3890   -0.4560 H   0  0  0  0  0  0  0  0  0  0  0  0
    5.2893    2.9999    2.2853 H   0  0  0  0  0  0  0  0  0  0  0  0
    6.9117    2.8690   -1.7880 H   0  0  0  0  0  0  0  0  0  0  0  0
   10.6981    2.6874    0.2378 H   0  0  0  0  0  0  0  0  0  0  0  0
    9.5451    2.4751    2.4031 H   0  0  0  0  0  0  0  0  0  0  0  0
    7.5821    2.4094    3.4482 H   0  0  0  0  0  0  0  0  0  0  0  0
  1  2  1  0  0  0  0
  1 17  1  0  0  0  0
  1 18  1  0  0  0  0
  1 19  1  0  0  0  0
  2  3  1  0  0  0  0
  2  4  1  0  0  0  0
  3 20  1  0  0  0  0
  4  5  2  0  0  0  0
  4  6  1  0  0  0  0
  6  7  1  0  0  0  0
  6 21  1  0  0  0  0
  6 22  1  0  0  0  0
  7  8  1  0  0  0  0
  7  9  1  0  0  0  0
  7 23  1  0  0  0  0
  8 24  1  0  0  0  0
  9 10  1  0  0  0  0
  9 15  2  0  0  0  0
 10 11  2  0  0  0  0
 10 25  1  0  0  0  0
 11 12  1  0  0  0  0
 11 13  1  0  0  0  0
 13 14  2  0  0  0  0
 13 26  1  0  0  0  0
 14 15  1  0  0  0  0
 14 27  1  0  0  0  0
 15 16  1  0  0  0  0
 16 28  1  0  0  0  0
M  END
>  <Line_Number>
84


> <IC50>
30500

$$$$
