155553304.0
 OpenBabel09302502333D

 24 24  0  0  1  0  0  0  0  0999 V2000
    3.4849    2.6136   -1.1881 O   0  0  0  0  0  0  0  0  0  0  0  0
    3.8393    1.6513   -0.5109 C   0  0  0  0  0  0  0  0  0  0  0  0
    2.9874    1.0021    0.5514 C   0  0  0  0  0  0  0  0  0  0  0  0
    2.0611    1.9846    1.2657 C   0  0  3  0  0  0  0  0  0  0  0  0
    1.2611    1.2540    2.2016 O   0  0  0  0  0  0  0  0  0  0  0  0
    2.7409    3.1477    1.9705 C   0  0  0  0  0  0  0  0  0  0  0  0
    2.4312    4.4502    1.5271 C   0  0  0  0  0  0  0  0  0  0  0  0
    3.0146    5.5757    2.1140 C   0  0  0  0  0  0  0  0  0  0  0  0
    3.9248    5.4172    3.1516 C   0  0  0  0  0  0  0  0  0  0  0  0
    4.6480    6.7995    3.8757 Cl  0  0  0  0  0  0  0  0  0  0  0  0
    4.2464    4.1460    3.6148 C   0  0  0  0  0  0  0  0  0  0  0  0
    3.6502    3.0200    3.0360 C   0  0  0  0  0  0  0  0  0  0  0  0
    4.0539    1.4884    3.7280 Cl  0  0  0  0  0  0  0  0  0  0  0  0
    5.0442    1.0245   -0.6987 N   0  0  0  0  0  0  0  0  0  0  0  0
    5.8853    1.5252   -1.7120 O   0  0  0  0  0  0  0  0  0  0  0  0
    3.6214    0.4578    1.2577 H   0  0  0  0  0  0  0  0  0  0  0  0
    2.3820    0.2312    0.0584 H   0  0  0  0  0  0  0  0  0  0  0  0
    1.3524    2.3781    0.5265 H   0  0  0  0  0  0  0  0  0  0  0  0
    1.8047    1.0806    2.9910 H   0  0  0  0  0  0  0  0  0  0  0  0
    1.7262    4.5995    0.7090 H   0  0  0  0  0  0  0  0  0  0  0  0
    2.7536    6.5679    1.7537 H   0  0  0  0  0  0  0  0  0  0  0  0
    4.9534    4.0324    4.4327 H   0  0  0  0  0  0  0  0  0  0  0  0
    5.3567    0.1926   -0.2078 H   0  0  0  0  0  0  0  0  0  0  0  0
    5.3375    2.2342   -2.1127 H   0  0  0  0  0  0  0  0  0  0  0  0
  1  2  2  0  0  0  0
  2  3  1  0  0  0  0
  2 14  1  0  0  0  0
  3  4  1  0  0  0  0
  3 16  1  0  0  0  0
  3 17  1  0  0  0  0
  4  5  1  0  0  0  0
  4  6  1  0  0  0  0
  4 18  1  0  0  0  0
  5 19  1  0  0  0  0
  6  7  1  0  0  0  0
  6 12  2  0  0  0  0
  7  8  2  0  0  0  0
  7 20  1  0  0  0  0
  8  9  1  0  0  0  0
  8 21  1  0  0  0  0
  9 10  1  0  0  0  0
  9 11  2  0  0  0  0
 11 12  1  0  0  0  0
 11 22  1  0  0  0  0
 12 13  1  0  0  0  0
 14 15  1  0  0  0  0
 14 23  1  0  0  0  0
 15 24  1  0  0  0  0
M  END
>  <Line_Number>
85


> <IC50>
13400

$$$$
