155528209.0
 OpenBabel09302502333D

 27 27  0  0  1  0  0  0  0  0999 V2000
    4.7786   -3.6732    0.9070 C   0  0  0  0  0  0  0  0  0  0  0  0
    4.5656   -2.7415   -0.1898 N   0  0  0  0  0  0  0  0  0  0  0  0
    3.5947   -3.1192   -1.1395 O   0  0  0  0  0  0  0  0  0  0  0  0
    4.8906   -1.4102   -0.0872 C   0  0  0  0  0  0  0  0  0  0  0  0
    5.4897   -0.9455    0.8888 O   0  0  0  0  0  0  0  0  0  0  0  0
    4.5000   -0.5183   -1.2415 C   0  0  0  0  0  0  0  0  0  0  0  0
    5.1797   -0.9161   -2.5538 C   0  0  3  0  0  0  0  0  0  0  0  0
    4.7460   -0.0016   -3.5663 O   0  0  0  0  0  0  0  0  0  0  0  0
    6.6989   -0.9443   -2.5493 C   0  0  0  0  0  0  0  0  0  0  0  0
    7.3606   -1.8775   -3.3687 C   0  0  0  0  0  0  0  0  0  0  0  0
    8.7556   -1.9331   -3.4132 C   0  0  0  0  0  0  0  0  0  0  0  0
    9.5054   -1.0501   -2.6428 C   0  0  0  0  0  0  0  0  0  0  0  0
   11.3932   -1.1164   -2.7033 Br  0  0  0  0  0  0  0  0  0  0  0  0
    8.8713   -0.1128   -1.8307 C   0  0  0  0  0  0  0  0  0  0  0  0
    7.4750   -0.0583   -1.7887 C   0  0  0  0  0  0  0  0  0  0  0  0
    4.3356   -4.6476    0.6876 H   0  0  0  0  0  0  0  0  0  0  0  0
    4.3480   -3.2563    1.8211 H   0  0  0  0  0  0  0  0  0  0  0  0
    5.8575   -3.7827    1.0503 H   0  0  0  0  0  0  0  0  0  0  0  0
    3.0644   -3.8094   -0.7044 H   0  0  0  0  0  0  0  0  0  0  0  0
    4.7370    0.5216   -0.9833 H   0  0  0  0  0  0  0  0  0  0  0  0
    3.4082   -0.5315   -1.3588 H   0  0  0  0  0  0  0  0  0  0  0  0
    4.8168   -1.9026   -2.8611 H   0  0  0  0  0  0  0  0  0  0  0  0
    5.3685    0.7469   -3.5691 H   0  0  0  0  0  0  0  0  0  0  0  0
    6.7863   -2.5711   -3.9812 H   0  0  0  0  0  0  0  0  0  0  0  0
    9.2434   -2.6662   -4.0516 H   0  0  0  0  0  0  0  0  0  0  0  0
    9.4518    0.5776   -1.2237 H   0  0  0  0  0  0  0  0  0  0  0  0
    7.0110    0.6820   -1.1407 H   0  0  0  0  0  0  0  0  0  0  0  0
  1  2  1  0  0  0  0
  1 16  1  0  0  0  0
  1 17  1  0  0  0  0
  1 18  1  0  0  0  0
  2  3  1  0  0  0  0
  2  4  1  0  0  0  0
  3 19  1  0  0  0  0
  4  5  2  0  0  0  0
  4  6  1  0  0  0  0
  6  7  1  0  0  0  0
  6 20  1  0  0  0  0
  6 21  1  0  0  0  0
  7  8  1  0  0  0  0
  7  9  1  0  0  0  0
  7 22  1  0  0  0  0
  8 23  1  0  0  0  0
  9 10  1  0  0  0  0
  9 15  2  0  0  0  0
 10 11  2  0  0  0  0
 10 24  1  0  0  0  0
 11 12  1  0  0  0  0
 11 25  1  0  0  0  0
 12 13  1  0  0  0  0
 12 14  2  0  0  0  0
 14 15  1  0  0  0  0
 14 26  1  0  0  0  0
 15 27  1  0  0  0  0
M  END
>  <Line_Number>
86


> <IC50>
97600

$$$$
