155546187.0
 OpenBabel09302502333D

 27 27  0  0  1  0  0  0  0  0999 V2000
    1.0104   -1.8699   -0.5656 C   0  0  0  0  0  0  0  0  0  0  0  0
    2.4543   -1.7234   -0.5051 N   0  0  0  0  0  0  0  0  0  0  0  0
    3.1724   -2.4527   -1.4711 O   0  0  0  0  0  0  0  0  0  0  0  0
    3.1019   -1.2301    0.6026 C   0  0  0  0  0  0  0  0  0  0  0  0
    2.5025   -0.7715    1.5761 O   0  0  0  0  0  0  0  0  0  0  0  0
    4.6114   -1.2305    0.5576 C   0  0  0  0  0  0  0  0  0  0  0  0
    5.1889   -2.5089    1.1751 C   0  0  3  0  0  0  0  0  0  0  0  0
    4.8533   -3.6865    0.4433 O   0  0  0  0  0  0  0  0  0  0  0  0
    6.7064   -2.4699    1.2161 C   0  0  0  0  0  0  0  0  0  0  0  0
    7.4536   -2.3726    0.0295 C   0  0  0  0  0  0  0  0  0  0  0  0
    8.8462   -2.3529    0.0567 C   0  0  0  0  0  0  0  0  0  0  0  0
    9.5222   -2.4196    1.2765 C   0  0  0  0  0  0  0  0  0  0  0  0
   11.2494   -2.3831    1.2378 Cl  0  0  0  0  0  0  0  0  0  0  0  0
    8.7956   -2.5310    2.4673 C   0  0  0  0  0  0  0  0  0  0  0  0
    9.5689   -2.6468    4.0105 Cl  0  0  0  0  0  0  0  0  0  0  0  0
    7.3946   -2.5530    2.4350 C   0  0  0  0  0  0  0  0  0  0  0  0
    0.6997   -2.2750   -1.5328 H   0  0  0  0  0  0  0  0  0  0  0  0
    0.5615   -0.8837   -0.4162 H   0  0  0  0  0  0  0  0  0  0  0  0
    0.6795   -2.5283    0.2416 H   0  0  0  0  0  0  0  0  0  0  0  0
    2.6726   -2.2774   -2.2921 H   0  0  0  0  0  0  0  0  0  0  0  0
    4.9606   -0.3515    1.1191 H   0  0  0  0  0  0  0  0  0  0  0  0
    4.9438   -1.0845   -0.4704 H   0  0  0  0  0  0  0  0  0  0  0  0
    4.7909   -2.6411    2.1879 H   0  0  0  0  0  0  0  0  0  0  0  0
    4.5569   -3.4204   -0.4465 H   0  0  0  0  0  0  0  0  0  0  0  0
    6.9464   -2.3391   -0.9347 H   0  0  0  0  0  0  0  0  0  0  0  0
    9.4014   -2.2794   -0.8744 H   0  0  0  0  0  0  0  0  0  0  0  0
    6.8404   -2.6527    3.3674 H   0  0  0  0  0  0  0  0  0  0  0  0
  1  2  1  0  0  0  0
  1 17  1  0  0  0  0
  1 18  1  0  0  0  0
  1 19  1  0  0  0  0
  2  3  1  0  0  0  0
  2  4  1  0  0  0  0
  3 20  1  0  0  0  0
  4  5  2  0  0  0  0
  4  6  1  0  0  0  0
  6  7  1  0  0  0  0
  6 21  1  0  0  0  0
  6 22  1  0  0  0  0
  7  8  1  0  0  0  0
  7  9  1  0  0  0  0
  7 23  1  0  0  0  0
  8 24  1  0  0  0  0
  9 10  1  0  0  0  0
  9 16  2  0  0  0  0
 10 11  2  0  0  0  0
 10 25  1  0  0  0  0
 11 12  1  0  0  0  0
 11 26  1  0  0  0  0
 12 13  1  0  0  0  0
 12 14  2  0  0  0  0
 14 15  1  0  0  0  0
 14 16  1  0  0  0  0
 16 27  1  0  0  0  0
M  END
>  <Line_Number>
87


> <IC50>
90400

$$$$
