155562391.0
 OpenBabel09302502333D

 27 27  0  0  1  0  0  0  0  0999 V2000
    1.0565   -1.6911    0.9541 C   0  0  0  0  0  0  0  0  0  0  0  0
    2.4892   -1.5151    0.8078 N   0  0  0  0  0  0  0  0  0  0  0  0
    3.1943   -2.7343    0.8928 O   0  0  0  0  0  0  0  0  0  0  0  0
    3.1206   -0.3632    1.2418 C   0  0  0  0  0  0  0  0  0  0  0  0
    2.5081    0.6578    1.5609 O   0  0  0  0  0  0  0  0  0  0  0  0
    4.6405   -0.3934    1.2426 C   0  0  0  0  0  0  0  0  0  0  0  0
    5.2051   -0.8083    2.6054 C   0  0  3  0  0  0  0  0  0  0  0  0
    4.8893   -2.1516    2.9660 O   0  0  0  0  0  0  0  0  0  0  0  0
    6.7216   -0.7338    2.6216 C   0  0  0  0  0  0  0  0  0  0  0  0
    7.4864   -1.5336    1.7496 C   0  0  0  0  0  0  0  0  0  0  0  0
    8.8816   -1.4983    1.7731 C   0  0  0  0  0  0  0  0  0  0  0  0
    9.5364   -0.6654    2.6780 C   0  0  0  0  0  0  0  0  0  0  0  0
    8.7892    0.1201    3.5458 C   0  0  0  0  0  0  0  0  0  0  0  0
    9.4222    0.9117    4.4225 F   0  0  0  0  0  0  0  0  0  0  0  0
    7.3943    0.0960    3.5268 C   0  0  0  0  0  0  0  0  0  0  0  0
    0.7557   -2.6543    0.5330 H   0  0  0  0  0  0  0  0  0  0  0  0
    0.5490   -0.8833    0.4208 H   0  0  0  0  0  0  0  0  0  0  0  0
    0.7885   -1.6428    2.0131 H   0  0  0  0  0  0  0  0  0  0  0  0
    3.0360   -3.1141    0.0056 H   0  0  0  0  0  0  0  0  0  0  0  0
    4.9813    0.6141    0.9829 H   0  0  0  0  0  0  0  0  0  0  0  0
    4.9798   -1.0522    0.4403 H   0  0  0  0  0  0  0  0  0  0  0  0
    4.7897   -0.1632    3.3894 H   0  0  0  0  0  0  0  0  0  0  0  0
    4.3670   -2.5516    2.2444 H   0  0  0  0  0  0  0  0  0  0  0  0
    6.9913   -2.2127    1.0583 H   0  0  0  0  0  0  0  0  0  0  0  0
    9.4533   -2.1287    1.0974 H   0  0  0  0  0  0  0  0  0  0  0  0
   10.6206   -0.6339    2.7176 H   0  0  0  0  0  0  0  0  0  0  0  0
    6.8520    0.7161    4.2343 H   0  0  0  0  0  0  0  0  0  0  0  0
  1  2  1  0  0  0  0
  1 16  1  0  0  0  0
  1 17  1  0  0  0  0
  1 18  1  0  0  0  0
  2  3  1  0  0  0  0
  2  4  1  0  0  0  0
  3 19  1  0  0  0  0
  4  5  2  0  0  0  0
  4  6  1  0  0  0  0
  6  7  1  0  0  0  0
  6 20  1  0  0  0  0
  6 21  1  0  0  0  0
  7  8  1  0  0  0  0
  7  9  1  0  0  0  0
  7 22  1  0  0  0  0
  8 23  1  0  0  0  0
  9 10  1  0  0  0  0
  9 15  2  0  0  0  0
 10 11  2  0  0  0  0
 10 24  1  0  0  0  0
 11 12  1  0  0  0  0
 11 25  1  0  0  0  0
 12 13  2  0  0  0  0
 12 26  1  0  0  0  0
 13 14  1  0  0  0  0
 13 15  1  0  0  0  0
 15 27  1  0  0  0  0
M  END
>  <Line_Number>
88


> <IC50>
71200

$$$$
