155540829.0
 OpenBabel09302502333D

 27 27  0  0  1  0  0  0  0  0999 V2000
    1.0050    1.4690    1.1490 C   0  0  0  0  0  0  0  0  0  0  0  0
    2.4491    1.3965    0.9993 N   0  0  0  0  0  0  0  0  0  0  0  0
    3.2057    1.6679    2.1541 O   0  0  0  0  0  0  0  0  0  0  0  0
    3.0707    1.2130   -0.2145 C   0  0  0  0  0  0  0  0  0  0  0  0
    2.4589    1.0509   -1.2657 O   0  0  0  0  0  0  0  0  0  0  0  0
    4.5915    1.1925   -0.1955 C   0  0  0  0  0  0  0  0  0  0  0  0
    5.1771    2.5871   -0.4175 C   0  0  3  0  0  0  0  0  0  0  0  0
    4.8028    3.5164    0.5976 O   0  0  0  0  0  0  0  0  0  0  0  0
    6.6970    2.5670   -0.4470 C   0  0  0  0  0  0  0  0  0  0  0  0
    7.3884    2.9981   -1.5917 C   0  0  0  0  0  0  0  0  0  0  0  0
    8.7893    2.9965   -1.6204 C   0  0  0  0  0  0  0  0  0  0  0  0
    9.5131    2.5691   -0.5116 C   0  0  0  0  0  0  0  0  0  0  0  0
    8.8375    2.1431    0.6293 C   0  0  0  0  0  0  0  0  0  0  0  0
    9.7294    1.6141    2.0022 Cl  0  0  0  0  0  0  0  0  0  0  0  0
    7.4414    2.1421    0.6668 C   0  0  0  0  0  0  0  0  0  0  0  0
    0.7239    1.5462    2.2008 H   0  0  0  0  0  0  0  0  0  0  0  0
    0.5720    0.5648    0.7140 H   0  0  0  0  0  0  0  0  0  0  0  0
    0.6298    2.3342    0.5963 H   0  0  0  0  0  0  0  0  0  0  0  0
    2.6608    1.3005    2.8732 H   0  0  0  0  0  0  0  0  0  0  0  0
    4.9236    0.5039   -0.9786 H   0  0  0  0  0  0  0  0  0  0  0  0
    4.9282    0.7599    0.7530 H   0  0  0  0  0  0  0  0  0  0  0  0
    4.7995    2.9925   -1.3653 H   0  0  0  0  0  0  0  0  0  0  0  0
    4.6114    3.0130    1.4112 H   0  0  0  0  0  0  0  0  0  0  0  0
    6.8449    3.3458   -2.4636 H   0  0  0  0  0  0  0  0  0  0  0  0
    9.3104    3.3362   -2.5123 H   0  0  0  0  0  0  0  0  0  0  0  0
   10.5996    2.5736   -0.5397 H   0  0  0  0  0  0  0  0  0  0  0  0
    6.9367    1.8184    1.5737 H   0  0  0  0  0  0  0  0  0  0  0  0
  1  2  1  0  0  0  0
  1 16  1  0  0  0  0
  1 17  1  0  0  0  0
  1 18  1  0  0  0  0
  2  3  1  0  0  0  0
  2  4  1  0  0  0  0
  3 19  1  0  0  0  0
  4  5  2  0  0  0  0
  4  6  1  0  0  0  0
  6  7  1  0  0  0  0
  6 20  1  0  0  0  0
  6 21  1  0  0  0  0
  7  8  1  0  0  0  0
  7  9  1  0  0  0  0
  7 22  1  0  0  0  0
  8 23  1  0  0  0  0
  9 10  1  0  0  0  0
  9 15  2  0  0  0  0
 10 11  2  0  0  0  0
 10 24  1  0  0  0  0
 11 12  1  0  0  0  0
 11 25  1  0  0  0  0
 12 13  2  0  0  0  0
 12 26  1  0  0  0  0
 13 14  1  0  0  0  0
 13 15  1  0  0  0  0
 15 27  1  0  0  0  0
M  END
>  <Line_Number>
89


> <IC50>
48000

$$$$
