16745298.0
 OpenBabel09302502333D

 32 33  0  0  0  0  0  0  0  0999 V2000
    2.3244   -0.1257    0.2966 O   0  0  0  0  0  0  0  0  0  0  0  0
    0.9660   -0.0954    0.1786 C   0  0  0  0  0  0  0  0  0  0  0  0
    0.3448   -0.0864   -1.0658 C   0  0  0  0  0  0  0  0  0  0  0  0
   -1.0525   -0.0444   -1.1368 C   0  0  0  0  0  0  0  0  0  0  0  0
   -1.8268   -0.0045    0.0315 C   0  0  0  0  0  0  0  0  0  0  0  0
   -3.3357    0.0581   -0.0493 C   0  0  0  0  0  0  0  0  0  0  0  0
   -3.9806   -1.3309   -0.0344 C   0  0  0  0  0  0  0  0  0  0  0  0
   -5.4886   -1.2657   -0.1219 C   0  0  0  0  0  0  0  0  0  0  0  0
   -6.2691   -1.2356    1.0501 C   0  0  0  0  0  0  0  0  0  0  0  0
   -7.6696   -1.1870    0.9889 C   0  0  0  0  0  0  0  0  0  0  0  0
   -8.2977   -1.1644   -0.2503 C   0  0  0  0  0  0  0  0  0  0  0  0
   -9.6583   -1.1233   -0.3778 O   0  0  0  0  0  0  0  0  0  0  0  0
   -7.5383   -1.1835   -1.4137 C   0  0  0  0  0  0  0  0  0  0  0  0
   -8.1499   -1.1644   -2.6400 O   0  0  0  0  0  0  0  0  0  0  0  0
   -6.1479   -1.2270   -1.3526 C   0  0  0  0  0  0  0  0  0  0  0  0
   -5.4372   -1.2377   -2.5213 O   0  0  0  0  0  0  0  0  0  0  0  0
   -1.1796   -0.0289    1.2749 C   0  0  0  0  0  0  0  0  0  0  0  0
    0.2151   -0.0721    1.3472 C   0  0  0  0  0  0  0  0  0  0  0  0
    2.7110   -0.1189   -0.5941 H   0  0  0  0  0  0  0  0  0  0  0  0
    0.9224   -0.1077   -1.9837 H   0  0  0  0  0  0  0  0  0  0  0  0
   -1.5341   -0.0374   -2.1126 H   0  0  0  0  0  0  0  0  0  0  0  0
   -3.6253    0.6071   -0.9547 H   0  0  0  0  0  0  0  0  0  0  0  0
   -3.7122    0.6593    0.7891 H   0  0  0  0  0  0  0  0  0  0  0  0
   -3.6975   -1.8695    0.8796 H   0  0  0  0  0  0  0  0  0  0  0  0
   -3.5922   -1.9431   -0.8586 H   0  0  0  0  0  0  0  0  0  0  0  0
   -5.7846   -1.2571    2.0248 H   0  0  0  0  0  0  0  0  0  0  0  0
   -8.2413   -1.1726    1.9119 H   0  0  0  0  0  0  0  0  0  0  0  0
  -10.0461   -1.1067    0.5147 H   0  0  0  0  0  0  0  0  0  0  0  0
   -9.1057   -1.1493   -2.4278 H   0  0  0  0  0  0  0  0  0  0  0  0
   -6.1223   -1.2296   -3.2207 H   0  0  0  0  0  0  0  0  0  0  0  0
   -1.7556   -0.0062    2.1964 H   0  0  0  0  0  0  0  0  0  0  0  0
    0.7136   -0.0824    2.3122 H   0  0  0  0  0  0  0  0  0  0  0  0
  1  2  1  0  0  0  0
  1 19  1  0  0  0  0
  2  3  1  0  0  0  0
  2 18  2  0  0  0  0
  3  4  2  0  0  0  0
  3 20  1  0  0  0  0
  4  5  1  0  0  0  0
  4 21  1  0  0  0  0
  5  6  1  0  0  0  0
  5 17  2  0  0  0  0
  6  7  1  0  0  0  0
  6 22  1  0  0  0  0
  6 23  1  0  0  0  0
  7  8  1  0  0  0  0
  7 24  1  0  0  0  0
  7 25  1  0  0  0  0
  8  9  1  0  0  0  0
  8 15  2  0  0  0  0
  9 10  2  0  0  0  0
  9 26  1  0  0  0  0
 10 11  1  0  0  0  0
 10 27  1  0  0  0  0
 11 12  1  0  0  0  0
 11 13  2  0  0  0  0
 12 28  1  0  0  0  0
 13 14  1  0  0  0  0
 13 15  1  0  0  0  0
 14 29  1  0  0  0  0
 15 16  1  0  0  0  0
 16 30  1  0  0  0  0
 17 18  1  0  0  0  0
 17 31  1  0  0  0  0
 18 32  1  0  0  0  0
M  END
>  <Line_Number>
8


> <IC50>
32000

$$$$
