71727108.0
 OpenBabel09302502333D

 27 27  0  0  1  0  0  0  0  0999 V2000
    1.0356   -2.0414    0.9279 C   0  0  0  0  0  0  0  0  0  0  0  0
    2.4820   -2.1160    0.8895 N   0  0  0  0  0  0  0  0  0  0  0  0
    3.0397   -2.0525    2.1858 O   0  0  0  0  0  0  0  0  0  0  0  0
    3.1841   -1.4560   -0.1023 C   0  0  0  0  0  0  0  0  0  0  0  0
    2.6507   -1.0234   -1.1267 O   0  0  0  0  0  0  0  0  0  0  0  0
    4.6898   -1.3663    0.0583 C   0  0  0  0  0  0  0  0  0  0  0  0
    5.3138   -2.7589   -0.0342 C   0  0  3  0  0  0  0  0  0  0  0  0
    4.9578   -3.4140   -1.2601 O   0  0  0  0  0  0  0  0  0  0  0  0
    6.8319   -2.7192    0.0571 C   0  0  0  0  0  0  0  0  0  0  0  0
    7.5949   -2.6504   -1.1293 C   0  0  0  0  0  0  0  0  0  0  0  0
    8.9879   -2.6466   -1.1003 C   0  0  0  0  0  0  0  0  0  0  0  0
    9.6542   -2.7064    0.1184 C   0  0  0  0  0  0  0  0  0  0  0  0
    8.9276   -2.7507    1.3095 C   0  0  0  0  0  0  0  0  0  0  0  0
    9.8368   -2.8166    2.7815 Cl  0  0  0  0  0  0  0  0  0  0  0  0
    7.5170   -2.7541    1.2883 C   0  0  0  0  0  0  0  0  0  0  0  0
    6.6280   -2.7948    2.7798 Cl  0  0  0  0  0  0  0  0  0  0  0  0
    0.6595   -2.6643    1.7439 H   0  0  0  0  0  0  0  0  0  0  0  0
    0.6355   -2.4044   -0.0241 H   0  0  0  0  0  0  0  0  0  0  0  0
    0.7272   -1.0035    1.0719 H   0  0  0  0  0  0  0  0  0  0  0  0
    3.1108   -2.9987    2.4171 H   0  0  0  0  0  0  0  0  0  0  0  0
    4.9349   -0.8562    0.9965 H   0  0  0  0  0  0  0  0  0  0  0  0
    5.0643   -0.7260   -0.7531 H   0  0  0  0  0  0  0  0  0  0  0  0
    4.9212   -3.4124    0.7489 H   0  0  0  0  0  0  0  0  0  0  0  0
    4.6032   -2.7541   -1.8825 H   0  0  0  0  0  0  0  0  0  0  0  0
    7.1003   -2.6161   -2.0994 H   0  0  0  0  0  0  0  0  0  0  0  0
    9.5499   -2.6132   -2.0313 H   0  0  0  0  0  0  0  0  0  0  0  0
   10.7414   -2.7168    0.1325 H   0  0  0  0  0  0  0  0  0  0  0  0
  1  2  1  0  0  0  0
  1 17  1  0  0  0  0
  1 18  1  0  0  0  0
  1 19  1  0  0  0  0
  2  3  1  0  0  0  0
  2  4  1  0  0  0  0
  3 20  1  0  0  0  0
  4  5  2  0  0  0  0
  4  6  1  0  0  0  0
  6  7  1  0  0  0  0
  6 21  1  0  0  0  0
  6 22  1  0  0  0  0
  7  8  1  0  0  0  0
  7  9  1  0  0  0  0
  7 23  1  0  0  0  0
  8 24  1  0  0  0  0
  9 10  1  0  0  0  0
  9 15  2  0  0  0  0
 10 11  2  0  0  0  0
 10 25  1  0  0  0  0
 11 12  1  0  0  0  0
 11 26  1  0  0  0  0
 12 13  2  0  0  0  0
 12 27  1  0  0  0  0
 13 14  1  0  0  0  0
 13 15  1  0  0  0  0
 15 16  1  0  0  0  0
M  END
>  <Line_Number>
90


> <IC50>
95800

$$$$
