155557124.0
 OpenBabel09302502333D

 27 27  0  0  1  0  0  0  0  0999 V2000
    1.1536    0.0458    1.9842 C   0  0  0  0  0  0  0  0  0  0  0  0
    2.5978    0.1497    1.7967 N   0  0  0  0  0  0  0  0  0  0  0  0
    3.3730   -0.4150    2.8273 O   0  0  0  0  0  0  0  0  0  0  0  0
    3.1768    0.9899    0.8860 C   0  0  0  0  0  0  0  0  0  0  0  0
    2.5089    1.6763    0.0960 O   0  0  0  0  0  0  0  0  0  0  0  0
    4.6922    1.0040    0.8364 C   0  0  0  0  0  0  0  0  0  0  0  0
    5.2844    2.0605    1.7698 C   0  0  3  0  0  0  0  0  0  0  0  0
    4.9295    1.8369    3.1399 O   0  0  0  0  0  0  0  0  0  0  0  0
    6.8065    2.0843    1.6923 C   0  0  0  0  0  0  0  0  0  0  0  0
    7.5666    1.2662    2.5563 C   0  0  0  0  0  0  0  0  0  0  0  0
    8.9626    1.2633    2.5199 C   0  0  0  0  0  0  0  0  0  0  0  0
    9.6339    2.0710    1.6098 C   0  0  0  0  0  0  0  0  0  0  0  0
    8.9067    2.8778    0.7363 C   0  0  0  0  0  0  0  0  0  0  0  0
    7.5051    2.8847    0.7729 C   0  0  0  0  0  0  0  0  0  0  0  0
    6.6926    3.9087   -0.3570 Cl  0  0  0  0  0  0  0  0  0  0  0  0
    0.9150   -0.7076    2.7373 H   0  0  0  0  0  0  0  0  0  0  0  0
    0.7130   -0.2381    1.0265 H   0  0  0  0  0  0  0  0  0  0  0  0
    0.7591    1.0184    2.2786 H   0  0  0  0  0  0  0  0  0  0  0  0
    2.9393   -1.2723    2.9890 H   0  0  0  0  0  0  0  0  0  0  0  0
    4.9885    1.1878   -0.2041 H   0  0  0  0  0  0  0  0  0  0  0  0
    5.0625    0.0035    1.0827 H   0  0  0  0  0  0  0  0  0  0  0  0
    4.8813    3.0503    1.5292 H   0  0  0  0  0  0  0  0  0  0  0  0
    4.6630    0.9015    3.2285 H   0  0  0  0  0  0  0  0  0  0  0  0
    7.0709    0.6307    3.2875 H   0  0  0  0  0  0  0  0  0  0  0  0
    9.5217    0.6363    3.2103 H   0  0  0  0  0  0  0  0  0  0  0  0
   10.7205    2.0749    1.5821 H   0  0  0  0  0  0  0  0  0  0  0  0
    9.4398    3.5061    0.0269 H   0  0  0  0  0  0  0  0  0  0  0  0
  1  2  1  0  0  0  0
  1 16  1  0  0  0  0
  1 17  1  0  0  0  0
  1 18  1  0  0  0  0
  2  3  1  0  0  0  0
  2  4  1  0  0  0  0
  3 19  1  0  0  0  0
  4  5  2  0  0  0  0
  4  6  1  0  0  0  0
  6  7  1  0  0  0  0
  6 20  1  0  0  0  0
  6 21  1  0  0  0  0
  7  8  1  0  0  0  0
  7  9  1  0  0  0  0
  7 22  1  0  0  0  0
  8 23  1  0  0  0  0
  9 10  1  0  0  0  0
  9 14  2  0  0  0  0
 10 11  2  0  0  0  0
 10 24  1  0  0  0  0
 11 12  1  0  0  0  0
 11 25  1  0  0  0  0
 12 13  2  0  0  0  0
 12 26  1  0  0  0  0
 13 14  1  0  0  0  0
 13 27  1  0  0  0  0
 14 15  1  0  0  0  0
M  END
>  <Line_Number>
91


> <IC50>
56600

$$$$
