155538391.0
 OpenBabel09302502333D

 45 46  0  0  1  0  0  0  0  0999 V2000
    1.9258    0.0583   -1.3404 C   0  0  0  0  0  0  0  0  0  0  0  0
    2.4120   -0.0666   -0.0031 O   0  0  0  0  0  0  0  0  0  0  0  0
    3.1444   -1.2061    0.2351 C   0  0  0  0  0  0  0  0  0  0  0  0
    2.7830   -2.4443   -0.3259 C   0  0  0  0  0  0  0  0  0  0  0  0
    3.5400   -3.6005   -0.0918 C   0  0  0  0  0  0  0  0  0  0  0  0
    3.1802   -4.9404   -0.6972 C   0  0  3  0  0  0  0  0  0  0  0  0
    1.8948   -5.3673   -0.2208 O   0  0  0  0  0  0  0  0  0  0  0  0
    3.1083   -4.9291   -2.2205 C   0  0  0  0  0  0  0  0  0  0  0  0
    4.4160   -4.5636   -2.8946 C   0  0  0  0  0  0  0  0  0  0  0  0
    5.4714   -4.3904   -2.2928 O   0  0  0  0  0  0  0  0  0  0  0  0
    4.3465   -4.4157   -4.2560 N   0  0  0  0  0  0  0  0  0  0  0  0
    3.2863   -4.7283   -5.1947 C   0  0  0  0  0  0  0  0  0  0  0  0
    5.5404   -4.0239   -4.9011 O   0  0  0  0  0  0  0  0  0  0  0  0
    4.6888   -3.4956    0.6957 C   0  0  0  0  0  0  0  0  0  0  0  0
    5.0423   -2.2808    1.2722 C   0  0  0  0  0  0  0  0  0  0  0  0
    4.2403   -1.1396    1.1091 C   0  0  0  0  0  0  0  0  0  0  0  0
    4.4791    0.0412    1.7904 O   0  0  0  0  0  0  0  0  0  0  0  0
    5.2728   -0.1363    2.9719 C   0  0  0  0  0  0  0  0  0  0  0  0
    5.1770    0.9811    3.9827 C   0  0  0  0  0  0  0  0  0  0  0  0
    5.2398    0.6561    5.3524 C   0  0  0  0  0  0  0  0  0  0  0  0
    5.2620    1.6555    6.3226 C   0  0  0  0  0  0  0  0  0  0  0  0
    5.2303    2.9922    5.9379 C   0  0  0  0  0  0  0  0  0  0  0  0
    5.1764    3.3274    4.5814 C   0  0  0  0  0  0  0  0  0  0  0  0
    5.1508    2.3273    3.6068 C   0  0  0  0  0  0  0  0  0  0  0  0
    1.4449    1.0355   -1.4407 H   0  0  0  0  0  0  0  0  0  0  0  0
    1.1605   -0.6898   -1.5716 H   0  0  0  0  0  0  0  0  0  0  0  0
    2.7447    0.0056   -2.0674 H   0  0  0  0  0  0  0  0  0  0  0  0
    1.8899   -2.5255   -0.9366 H   0  0  0  0  0  0  0  0  0  0  0  0
    3.8954   -5.7005   -0.3735 H   0  0  0  0  0  0  0  0  0  0  0  0
    1.3792   -4.5834    0.0319 H   0  0  0  0  0  0  0  0  0  0  0  0
    2.3257   -4.2363   -2.5525 H   0  0  0  0  0  0  0  0  0  0  0  0
    2.8137   -5.9276   -2.5612 H   0  0  0  0  0  0  0  0  0  0  0  0
    2.4001   -5.1165   -4.6897 H   0  0  0  0  0  0  0  0  0  0  0  0
    3.6542   -5.4790   -5.9006 H   0  0  0  0  0  0  0  0  0  0  0  0
    3.0260   -3.8161   -5.7389 H   0  0  0  0  0  0  0  0  0  0  0  0
    6.1382   -3.8614   -4.1384 H   0  0  0  0  0  0  0  0  0  0  0  0
    5.3283   -4.3598    0.8612 H   0  0  0  0  0  0  0  0  0  0  0  0
    5.9577   -2.2613    1.8573 H   0  0  0  0  0  0  0  0  0  0  0  0
    6.3286   -0.2238    2.6847 H   0  0  0  0  0  0  0  0  0  0  0  0
    4.9540   -1.0515    3.4901 H   0  0  0  0  0  0  0  0  0  0  0  0
    5.2852   -0.3828    5.6686 H   0  0  0  0  0  0  0  0  0  0  0  0
    5.3125    1.3926    7.3750 H   0  0  0  0  0  0  0  0  0  0  0  0
    5.2602    3.7734    6.6909 H   0  0  0  0  0  0  0  0  0  0  0  0
    5.1630    4.3738    4.2853 H   0  0  0  0  0  0  0  0  0  0  0  0
    5.1218    2.6020    2.5558 H   0  0  0  0  0  0  0  0  0  0  0  0
  1  2  1  0  0  0  0
  1 25  1  0  0  0  0
  1 26  1  0  0  0  0
  1 27  1  0  0  0  0
  2  3  1  0  0  0  0
  3  4  1  0  0  0  0
  3 16  2  0  0  0  0
  4  5  2  0  0  0  0
  4 28  1  0  0  0  0
  5  6  1  0  0  0  0
  5 14  1  0  0  0  0
  6  7  1  0  0  0  0
  6  8  1  0  0  0  0
  6 29  1  0  0  0  0
  7 30  1  0  0  0  0
  8  9  1  0  0  0  0
  8 31  1  0  0  0  0
  8 32  1  0  0  0  0
  9 10  2  0  0  0  0
  9 11  1  0  0  0  0
 11 12  1  0  0  0  0
 11 13  1  0  0  0  0
 12 33  1  0  0  0  0
 12 34  1  0  0  0  0
 12 35  1  0  0  0  0
 13 36  1  0  0  0  0
 14 15  2  0  0  0  0
 14 37  1  0  0  0  0
 15 16  1  0  0  0  0
 15 38  1  0  0  0  0
 16 17  1  0  0  0  0
 17 18  1  0  0  0  0
 18 19  1  0  0  0  0
 18 39  1  0  0  0  0
 18 40  1  0  0  0  0
 19 20  1  0  0  0  0
 19 24  2  0  0  0  0
 20 21  2  0  0  0  0
 20 41  1  0  0  0  0
 21 22  1  0  0  0  0
 21 42  1  0  0  0  0
 22 23  2  0  0  0  0
 22 43  1  0  0  0  0
 23 24  1  0  0  0  0
 23 44  1  0  0  0  0
 24 45  1  0  0  0  0
M  END
>  <Line_Number>
92


> <IC50>
258000

$$$$
