155512668.0
 OpenBabel09302502333D

 35 35  0  0  1  0  0  0  0  0999 V2000
    0.8829   -0.2676    0.7544 C   0  0  0  0  0  0  0  0  0  0  0  0
    2.3072   -0.4236    0.9726 N   0  0  0  0  0  0  0  0  0  0  0  0
    2.9900    0.7991    0.8018 O   0  0  0  0  0  0  0  0  0  0  0  0
    2.9616   -1.5998    0.6269 C   0  0  0  0  0  0  0  0  0  0  0  0
    2.3510   -2.6648    0.5036 O   0  0  0  0  0  0  0  0  0  0  0  0
    4.4803   -1.5196    0.5592 C   0  0  0  0  0  0  0  0  0  0  0  0
    5.0928   -2.6001   -0.3406 C   0  0  3  0  0  0  0  0  0  0  0  0
    4.6751   -2.3498   -1.6876 O   0  0  0  0  0  0  0  0  0  0  0  0
    6.6187   -2.6312   -0.3411 C   0  0  0  0  0  0  0  0  0  0  0  0
    7.2898   -3.8372   -0.5516 C   0  0  0  0  0  0  0  0  0  0  0  0
    8.6989   -3.8788   -0.6205 C   0  0  0  0  0  0  0  0  0  0  0  0
    9.4968   -2.7285   -0.4994 C   0  0  0  0  0  0  0  0  0  0  0  0
   10.8893   -2.8028   -0.5095 N   0  0  0  0  0  0  0  0  0  0  0  0
   11.5528   -3.7157   -1.4392 C   0  0  0  0  0  0  0  0  0  0  0  0
   11.7110   -1.6625   -0.1189 C   0  0  0  0  0  0  0  0  0  0  0  0
    8.8016   -1.5289   -0.3002 C   0  0  0  0  0  0  0  0  0  0  0  0
    7.3980   -1.4745   -0.2262 C   0  0  0  0  0  0  0  0  0  0  0  0
    0.5705    0.7366    1.0580 H   0  0  0  0  0  0  0  0  0  0  0  0
    0.3520   -1.0141    1.3493 H   0  0  0  0  0  0  0  0  0  0  0  0
    0.6532   -0.4225   -0.3045 H   0  0  0  0  0  0  0  0  0  0  0  0
    2.8849    1.1990    1.6860 H   0  0  0  0  0  0  0  0  0  0  0  0
    4.8541   -1.6206    1.5853 H   0  0  0  0  0  0  0  0  0  0  0  0
    4.7646   -0.5349    0.1773 H   0  0  0  0  0  0  0  0  0  0  0  0
    4.7096   -3.5861   -0.0508 H   0  0  0  0  0  0  0  0  0  0  0  0
    5.3923   -1.8766   -2.1409 H   0  0  0  0  0  0  0  0  0  0  0  0
    6.7354   -4.7654   -0.6689 H   0  0  0  0  0  0  0  0  0  0  0  0
    9.1576   -4.8567   -0.7286 H   0  0  0  0  0  0  0  0  0  0  0  0
   10.9376   -4.5442   -1.7908 H   0  0  0  0  0  0  0  0  0  0  0  0
   12.4306   -4.1589   -0.9517 H   0  0  0  0  0  0  0  0  0  0  0  0
   11.9066   -3.1754   -2.3279 H   0  0  0  0  0  0  0  0  0  0  0  0
   11.2497   -1.0460    0.6577 H   0  0  0  0  0  0  0  0  0  0  0  0
   11.9483   -1.0335   -0.9844 H   0  0  0  0  0  0  0  0  0  0  0  0
   12.6560   -2.0235    0.3048 H   0  0  0  0  0  0  0  0  0  0  0  0
    9.3332   -0.5863   -0.2148 H   0  0  0  0  0  0  0  0  0  0  0  0
    6.9403   -0.4981   -0.0868 H   0  0  0  0  0  0  0  0  0  0  0  0
  1  2  1  0  0  0  0
  1 18  1  0  0  0  0
  1 19  1  0  0  0  0
  1 20  1  0  0  0  0
  2  3  1  0  0  0  0
  2  4  1  0  0  0  0
  3 21  1  0  0  0  0
  4  5  2  0  0  0  0
  4  6  1  0  0  0  0
  6  7  1  0  0  0  0
  6 22  1  0  0  0  0
  6 23  1  0  0  0  0
  7  8  1  0  0  0  0
  7  9  1  0  0  0  0
  7 24  1  0  0  0  0
  8 25  1  0  0  0  0
  9 10  1  0  0  0  0
  9 17  2  0  0  0  0
 10 11  2  0  0  0  0
 10 26  1  0  0  0  0
 11 12  1  0  0  0  0
 11 27  1  0  0  0  0
 12 13  1  0  0  0  0
 12 16  2  0  0  0  0
 13 14  1  0  0  0  0
 13 15  1  0  0  0  0
 14 28  1  0  0  0  0
 14 29  1  0  0  0  0
 14 30  1  0  0  0  0
 15 31  1  0  0  0  0
 15 32  1  0  0  0  0
 15 33  1  0  0  0  0
 16 17  1  0  0  0  0
 16 34  1  0  0  0  0
 17 35  1  0  0  0  0
M  END
>  <Line_Number>
93


> <IC50>
287000

$$$$
