155523859.0
 OpenBabel09302502333D

 31 31  0  0  1  0  0  0  0  0999 V2000
    2.4574    0.5334   -1.0629 C   0  0  0  0  0  0  0  0  0  0  0  0
    2.0240   -0.0926    0.1391 O   0  0  0  0  0  0  0  0  0  0  0  0
    2.9538   -0.8446    0.8023 C   0  0  0  0  0  0  0  0  0  0  0  0
    4.2665   -1.0639    0.3983 C   0  0  0  0  0  0  0  0  0  0  0  0
    5.1330   -1.8421    1.1700 C   0  0  0  0  0  0  0  0  0  0  0  0
    4.6862   -2.4320    2.3666 C   0  0  0  0  0  0  0  0  0  0  0  0
    5.5922   -3.3139    3.1968 C   0  0  3  0  0  0  0  0  0  0  0  0
    5.7327   -2.7274    4.5078 O   0  0  0  0  0  0  0  0  0  0  0  0
    5.0596   -4.7341    3.4104 C   0  0  0  0  0  0  0  0  0  0  0  0
    4.8642   -5.5367    2.1467 C   0  0  0  0  0  0  0  0  0  0  0  0
    5.1097   -5.1063    1.0127 O   0  0  0  0  0  0  0  0  0  0  0  0
    4.3539   -6.7935    2.3254 N   0  0  0  0  0  0  0  0  0  0  0  0
    3.9960   -7.5167    3.5337 C   0  0  0  0  0  0  0  0  0  0  0  0
    3.9542   -7.4779    1.1547 O   0  0  0  0  0  0  0  0  0  0  0  0
    3.3645   -2.1994    2.7640 C   0  0  0  0  0  0  0  0  0  0  0  0
    2.5053   -1.4183    1.9938 C   0  0  0  0  0  0  0  0  0  0  0  0
    1.6352    1.1556   -1.4304 H   0  0  0  0  0  0  0  0  0  0  0  0
    2.6844   -0.2126   -1.8318 H   0  0  0  0  0  0  0  0  0  0  0  0
    3.3140    1.1932   -0.8881 H   0  0  0  0  0  0  0  0  0  0  0  0
    4.6564   -0.6368   -0.5222 H   0  0  0  0  0  0  0  0  0  0  0  0
    6.1539   -1.9940    0.8190 H   0  0  0  0  0  0  0  0  0  0  0  0
    6.5985   -3.3598    2.7702 H   0  0  0  0  0  0  0  0  0  0  0  0
    4.8705   -2.3675    4.7704 H   0  0  0  0  0  0  0  0  0  0  0  0
    4.0955   -4.6961    3.9332 H   0  0  0  0  0  0  0  0  0  0  0  0
    5.7514   -5.2823    4.0612 H   0  0  0  0  0  0  0  0  0  0  0  0
    4.3060   -6.9805    4.4311 H   0  0  0  0  0  0  0  0  0  0  0  0
    4.4859   -8.4950    3.5143 H   0  0  0  0  0  0  0  0  0  0  0  0
    2.9118   -7.6532    3.5469 H   0  0  0  0  0  0  0  0  0  0  0  0
    4.1791   -6.8254    0.4534 H   0  0  0  0  0  0  0  0  0  0  0  0
    2.9831   -2.6289    3.6909 H   0  0  0  0  0  0  0  0  0  0  0  0
    1.4866   -1.2551    2.3280 H   0  0  0  0  0  0  0  0  0  0  0  0
  1  2  1  0  0  0  0
  1 17  1  0  0  0  0
  1 18  1  0  0  0  0
  1 19  1  0  0  0  0
  2  3  1  0  0  0  0
  3  4  1  0  0  0  0
  3 16  2  0  0  0  0
  4  5  2  0  0  0  0
  4 20  1  0  0  0  0
  5  6  1  0  0  0  0
  5 21  1  0  0  0  0
  6  7  1  0  0  0  0
  6 15  2  0  0  0  0
  7  8  1  0  0  0  0
  7  9  1  0  0  0  0
  7 22  1  0  0  0  0
  8 23  1  0  0  0  0
  9 10  1  0  0  0  0
  9 24  1  0  0  0  0
  9 25  1  0  0  0  0
 10 11  2  0  0  0  0
 10 12  1  0  0  0  0
 12 13  1  0  0  0  0
 12 14  1  0  0  0  0
 13 26  1  0  0  0  0
 13 27  1  0  0  0  0
 13 28  1  0  0  0  0
 14 29  1  0  0  0  0
 15 16  1  0  0  0  0
 15 30  1  0  0  0  0
 16 31  1  0  0  0  0
M  END
>  <Line_Number>
94


> <IC50>
328000

$$$$
