155546402.0
 OpenBabel09302502333D

 55 57  0  0  1  0  0  0  0  0999 V2000
    1.0448    2.0542    1.1208 C   0  0  0  0  0  0  0  0  0  0  0  0
    2.4623    1.7812    0.9841 N   0  0  0  0  0  0  0  0  0  0  0  0
    3.2722    2.5705    1.8257 O   0  0  0  0  0  0  0  0  0  0  0  0
    3.0061    1.2537   -0.1668 C   0  0  0  0  0  0  0  0  0  0  0  0
    2.3133    0.8369   -1.0981 O   0  0  0  0  0  0  0  0  0  0  0  0
    4.5060    1.1396   -0.2132 C   0  0  0  0  0  0  0  0  0  0  0  0
    5.1786    2.3135   -0.9144 C   0  0  3  0  0  0  0  0  0  0  0  0
    4.8808    3.5556   -0.2771 O   0  0  0  0  0  0  0  0  0  0  0  0
    6.6949    2.2144   -0.9866 C   0  0  0  0  0  0  0  0  0  0  0  0
    7.4408    1.1426   -0.4836 C   0  0  0  0  0  0  0  0  0  0  0  0
    8.8361    1.1265   -0.5882 C   0  0  0  0  0  0  0  0  0  0  0  0
    9.5171    2.1739   -1.2132 C   0  0  0  0  0  0  0  0  0  0  0  0
   10.8817    2.2065   -1.3472 O   0  0  0  0  0  0  0  0  0  0  0  0
   11.6292    1.5542   -0.3131 C   0  0  0  0  0  0  0  0  0  0  0  0
   12.9921    2.1928   -0.1556 C   0  0  0  0  0  0  0  0  0  0  0  0
   13.1853    3.5542   -0.4305 C   0  0  0  0  0  0  0  0  0  0  0  0
   14.4296    4.1520   -0.2309 C   0  0  0  0  0  0  0  0  0  0  0  0
   15.4939    3.4002    0.2610 C   0  0  0  0  0  0  0  0  0  0  0  0
   15.3133    2.0504    0.5569 C   0  0  0  0  0  0  0  0  0  0  0  0
   14.0679    1.4494    0.3551 C   0  0  0  0  0  0  0  0  0  0  0  0
    8.7807    3.2224   -1.7836 C   0  0  0  0  0  0  0  0  0  0  0  0
    9.4651    4.1873   -2.4869 O   0  0  0  0  0  0  0  0  0  0  0  0
    8.6764    4.8598   -3.4767 C   0  0  0  0  0  0  0  0  0  0  0  0
    9.5117    5.4370   -4.5934 C   0  0  0  0  0  0  0  0  0  0  0  0
   10.7423    4.8759   -4.9538 C   0  0  0  0  0  0  0  0  0  0  0  0
   11.4430    5.3634   -6.0571 C   0  0  0  0  0  0  0  0  0  0  0  0
   10.9164    6.4084   -6.8149 C   0  0  0  0  0  0  0  0  0  0  0  0
    9.6878    6.9685   -6.4724 C   0  0  0  0  0  0  0  0  0  0  0  0
    8.9862    6.4836   -5.3692 C   0  0  0  0  0  0  0  0  0  0  0  0
    7.3901    3.2566   -1.6170 C   0  0  0  0  0  0  0  0  0  0  0  0
    0.8358    2.4808    2.1053 H   0  0  0  0  0  0  0  0  0  0  0  0
    0.5100    1.1065    1.0099 H   0  0  0  0  0  0  0  0  0  0  0  0
    0.7213    2.7367    0.3313 H   0  0  0  0  0  0  0  0  0  0  0  0
    2.9875    2.2826    2.7137 H   0  0  0  0  0  0  0  0  0  0  0  0
    4.7327    0.2051   -0.7405 H   0  0  0  0  0  0  0  0  0  0  0  0
    4.8792    1.0181    0.8092 H   0  0  0  0  0  0  0  0  0  0  0  0
    4.7951    2.3846   -1.9402 H   0  0  0  0  0  0  0  0  0  0  0  0
    5.1346    3.4716    0.6593 H   0  0  0  0  0  0  0  0  0  0  0  0
    6.9640    0.2953    0.0007 H   0  0  0  0  0  0  0  0  0  0  0  0
    9.3673    0.2662   -0.1917 H   0  0  0  0  0  0  0  0  0  0  0  0
   11.7479    0.5000   -0.5914 H   0  0  0  0  0  0  0  0  0  0  0  0
   11.1278    1.6258    0.6611 H   0  0  0  0  0  0  0  0  0  0  0  0
   12.3608    4.1586   -0.8059 H   0  0  0  0  0  0  0  0  0  0  0  0
   14.5625    5.2061   -0.4581 H   0  0  0  0  0  0  0  0  0  0  0  0
   16.4618    3.8684    0.4169 H   0  0  0  0  0  0  0  0  0  0  0  0
   16.1425    1.4671    0.9493 H   0  0  0  0  0  0  0  0  0  0  0  0
   13.9442    0.3975    0.6030 H   0  0  0  0  0  0  0  0  0  0  0  0
    8.1275    5.6716   -2.9833 H   0  0  0  0  0  0  0  0  0  0  0  0
    7.9707    4.1691   -3.9598 H   0  0  0  0  0  0  0  0  0  0  0  0
   11.1531    4.0447   -4.3830 H   0  0  0  0  0  0  0  0  0  0  0  0
   12.3953    4.9174   -6.3291 H   0  0  0  0  0  0  0  0  0  0  0  0
   11.4603    6.7789   -7.6789 H   0  0  0  0  0  0  0  0  0  0  0  0
    9.2701    7.7741   -7.0700 H   0  0  0  0  0  0  0  0  0  0  0  0
    8.0170    6.9140   -5.1264 H   0  0  0  0  0  0  0  0  0  0  0  0
    6.8065    4.1009   -1.9776 H   0  0  0  0  0  0  0  0  0  0  0  0
  1  2  1  0  0  0  0
  1 31  1  0  0  0  0
  1 32  1  0  0  0  0
  1 33  1  0  0  0  0
  2  3  1  0  0  0  0
  2  4  1  0  0  0  0
  3 34  1  0  0  0  0
  4  5  2  0  0  0  0
  4  6  1  0  0  0  0
  6  7  1  0  0  0  0
  6 35  1  0  0  0  0
  6 36  1  0  0  0  0
  7  8  1  0  0  0  0
  7  9  1  0  0  0  0
  7 37  1  0  0  0  0
  8 38  1  0  0  0  0
  9 10  1  0  0  0  0
  9 30  2  0  0  0  0
 10 11  2  0  0  0  0
 10 39  1  0  0  0  0
 11 12  1  0  0  0  0
 11 40  1  0  0  0  0
 12 13  1  0  0  0  0
 12 21  2  0  0  0  0
 13 14  1  0  0  0  0
 14 15  1  0  0  0  0
 14 41  1  0  0  0  0
 14 42  1  0  0  0  0
 15 16  1  0  0  0  0
 15 20  2  0  0  0  0
 16 17  2  0  0  0  0
 16 43  1  0  0  0  0
 17 18  1  0  0  0  0
 17 44  1  0  0  0  0
 18 19  2  0  0  0  0
 18 45  1  0  0  0  0
 19 20  1  0  0  0  0
 19 46  1  0  0  0  0
 20 47  1  0  0  0  0
 21 22  1  0  0  0  0
 21 30  1  0  0  0  0
 22 23  1  0  0  0  0
 23 24  1  0  0  0  0
 23 48  1  0  0  0  0
 23 49  1  0  0  0  0
 24 25  1  0  0  0  0
 24 29  2  0  0  0  0
 25 26  2  0  0  0  0
 25 50  1  0  0  0  0
 26 27  1  0  0  0  0
 26 51  1  0  0  0  0
 27 28  2  0  0  0  0
 27 52  1  0  0  0  0
 28 29  1  0  0  0  0
 28 53  1  0  0  0  0
 29 54  1  0  0  0  0
 30 55  1  0  0  0  0
M  END
>  <Line_Number>
95


> <IC50>
376000

$$$$
