155536133.0
 OpenBabel09302502333D

 27 27  0  0  1  0  0  0  0  0999 V2000
    0.9287    1.5521    1.7305 C   0  0  0  0  0  0  0  0  0  0  0  0
    2.3697    1.4352    1.8265 N   0  0  0  0  0  0  0  0  0  0  0  0
    3.0096    2.6330    1.4224 O   0  0  0  0  0  0  0  0  0  0  0  0
    2.9883    0.2602    1.4458 C   0  0  0  0  0  0  0  0  0  0  0  0
    2.3636   -0.7891    1.2563 O   0  0  0  0  0  0  0  0  0  0  0  0
    4.4982    0.2888    1.2846 C   0  0  0  0  0  0  0  0  0  0  0  0
    5.1977    0.6039    2.6045 C   0  0  3  0  0  0  0  0  0  0  0  0
    4.8022   -0.3622    3.5841 O   0  0  0  0  0  0  0  0  0  0  0  0
    6.7195    0.6118    2.5770 C   0  0  0  0  0  0  0  0  0  0  0  0
    7.4811    0.3208    1.4350 C   0  0  0  0  0  0  0  0  0  0  0  0
    8.8800    0.3279    1.4874 C   0  0  0  0  0  0  0  0  0  0  0  0
    9.5326    0.6268    2.6805 C   0  0  0  0  0  0  0  0  0  0  0  0
   11.2517    0.6273    2.7402 Cl  0  0  0  0  0  0  0  0  0  0  0  0
    8.7996    0.9220    3.8245 C   0  0  0  0  0  0  0  0  0  0  0  0
    7.4036    0.9161    3.7705 C   0  0  0  0  0  0  0  0  0  0  0  0
    0.6134    2.5379    2.0800 H   0  0  0  0  0  0  0  0  0  0  0  0
    0.4724    0.7766    2.3568 H   0  0  0  0  0  0  0  0  0  0  0  0
    0.6165    1.4003    0.6936 H   0  0  0  0  0  0  0  0  0  0  0  0
    3.0169    3.1366    2.2590 H   0  0  0  0  0  0  0  0  0  0  0  0
    4.7633    1.0066    0.4985 H   0  0  0  0  0  0  0  0  0  0  0  0
    4.7936   -0.7059    0.9264 H   0  0  0  0  0  0  0  0  0  0  0  0
    4.8715    1.5822    2.9714 H   0  0  0  0  0  0  0  0  0  0  0  0
    5.2581   -1.1963    3.3720 H   0  0  0  0  0  0  0  0  0  0  0  0
    7.0108    0.0783    0.4855 H   0  0  0  0  0  0  0  0  0  0  0  0
    9.4530    0.0960    0.5930 H   0  0  0  0  0  0  0  0  0  0  0  0
    9.3024    1.1520    4.7599 H   0  0  0  0  0  0  0  0  0  0  0  0
    6.8392    1.1380    4.6762 H   0  0  0  0  0  0  0  0  0  0  0  0
  1  2  1  0  0  0  0
  1 16  1  0  0  0  0
  1 17  1  0  0  0  0
  1 18  1  0  0  0  0
  2  3  1  0  0  0  0
  2  4  1  0  0  0  0
  3 19  1  0  0  0  0
  4  5  2  0  0  0  0
  4  6  1  0  0  0  0
  6  7  1  0  0  0  0
  6 20  1  0  0  0  0
  6 21  1  0  0  0  0
  7  8  1  0  0  0  0
  7  9  1  0  0  0  0
  7 22  1  0  0  0  0
  8 23  1  0  0  0  0
  9 10  1  0  0  0  0
  9 15  2  0  0  0  0
 10 11  2  0  0  0  0
 10 24  1  0  0  0  0
 11 12  1  0  0  0  0
 11 25  1  0  0  0  0
 12 13  1  0  0  0  0
 12 14  2  0  0  0  0
 14 15  1  0  0  0  0
 14 26  1  0  0  0  0
 15 27  1  0  0  0  0
M  END
>  <Line_Number>
96


> <IC50>
87400

$$$$
