155519422.0
 OpenBabel09302502333D

 35 35  0  0  1  0  0  0  0  0999 V2000
    0.9456   -0.1448    0.0981 C   0  0  0  0  0  0  0  0  0  0  0  0
    2.3348    0.0491   -0.1464 O   0  0  0  0  0  0  0  0  0  0  0  0
    3.0011    0.8625    0.7319 C   0  0  0  0  0  0  0  0  0  0  0  0
    2.5966    1.0223    2.0614 C   0  0  0  0  0  0  0  0  0  0  0  0
    3.3445    1.7853    2.9627 C   0  0  0  0  0  0  0  0  0  0  0  0
    4.5341    2.4047    2.5515 C   0  0  0  0  0  0  0  0  0  0  0  0
    5.3329    3.2423    3.5256 C   0  0  3  0  0  0  0  0  0  0  0  0
    6.6387    2.6641    3.6798 O   0  0  0  0  0  0  0  0  0  0  0  0
    5.5452    4.6868    3.0824 C   0  0  0  0  0  0  0  0  0  0  0  0
    4.2819    5.4965    2.9075 C   0  0  0  0  0  0  0  0  0  0  0  0
    3.1517    5.0659    3.1236 O   0  0  0  0  0  0  0  0  0  0  0  0
    4.4728    6.7839    2.4610 N   0  0  0  0  0  0  0  0  0  0  0  0
    5.6875    7.5264    2.1730 C   0  0  0  0  0  0  0  0  0  0  0  0
    3.3078    7.5221    2.1600 O   0  0  0  0  0  0  0  0  0  0  0  0
    4.9384    2.2360    1.2245 C   0  0  0  0  0  0  0  0  0  0  0  0
    4.1804    1.4922    0.3077 C   0  0  0  0  0  0  0  0  0  0  0  0
    4.7479    1.4555   -0.9401 O   0  0  0  0  0  0  0  0  0  0  0  0
    3.8513    1.3700   -2.0399 C   0  0  0  0  0  0  0  0  0  0  0  0
    0.5522   -0.7817   -0.6986 H   0  0  0  0  0  0  0  0  0  0  0  0
    0.4130    0.8114    0.0666 H   0  0  0  0  0  0  0  0  0  0  0  0
    0.7604   -0.6689    1.0410 H   0  0  0  0  0  0  0  0  0  0  0  0
    1.7021    0.5447    2.4503 H   0  0  0  0  0  0  0  0  0  0  0  0
    2.9859    1.8926    3.9823 H   0  0  0  0  0  0  0  0  0  0  0  0
    4.8707    3.2254    4.5188 H   0  0  0  0  0  0  0  0  0  0  0  0
    6.9287    2.3321    2.8130 H   0  0  0  0  0  0  0  0  0  0  0  0
    6.0987    4.7049    2.1347 H   0  0  0  0  0  0  0  0  0  0  0  0
    6.1758    5.1905    3.8262 H   0  0  0  0  0  0  0  0  0  0  0  0
    6.5827    6.9567    2.4307 H   0  0  0  0  0  0  0  0  0  0  0  0
    5.6754    8.4548    2.7516 H   0  0  0  0  0  0  0  0  0  0  0  0
    5.7026    7.7653    1.1081 H   0  0  0  0  0  0  0  0  0  0  0  0
    2.6009    6.8638    2.3368 H   0  0  0  0  0  0  0  0  0  0  0  0
    5.8576    2.6978    0.8717 H   0  0  0  0  0  0  0  0  0  0  0  0
    4.4003    1.6754   -2.9362 H   0  0  0  0  0  0  0  0  0  0  0  0
    2.9981    2.0494   -1.9299 H   0  0  0  0  0  0  0  0  0  0  0  0
    3.5293    0.3382   -2.1989 H   0  0  0  0  0  0  0  0  0  0  0  0
  1  2  1  0  0  0  0
  1 19  1  0  0  0  0
  1 20  1  0  0  0  0
  1 21  1  0  0  0  0
  2  3  1  0  0  0  0
  3  4  1  0  0  0  0
  3 16  2  0  0  0  0
  4  5  2  0  0  0  0
  4 22  1  0  0  0  0
  5  6  1  0  0  0  0
  5 23  1  0  0  0  0
  6  7  1  0  0  0  0
  6 15  2  0  0  0  0
  7  8  1  0  0  0  0
  7  9  1  0  0  0  0
  7 24  1  0  0  0  0
  8 25  1  0  0  0  0
  9 10  1  0  0  0  0
  9 26  1  0  0  0  0
  9 27  1  0  0  0  0
 10 11  2  0  0  0  0
 10 12  1  0  0  0  0
 12 13  1  0  0  0  0
 12 14  1  0  0  0  0
 13 28  1  0  0  0  0
 13 29  1  0  0  0  0
 13 30  1  0  0  0  0
 14 31  1  0  0  0  0
 15 16  1  0  0  0  0
 15 32  1  0  0  0  0
 16 17  1  0  0  0  0
 17 18  1  0  0  0  0
 18 33  1  0  0  0  0
 18 34  1  0  0  0  0
 18 35  1  0  0  0  0
M  END
>  <Line_Number>
97


> <IC50>
405000

$$$$
