155534689.0
 OpenBabel09302502333D

 27 27  0  0  1  0  0  0  0  0999 V2000
    0.9772   -1.4766    1.1257 C   0  0  0  0  0  0  0  0  0  0  0  0
    2.4149   -1.3668    0.9739 N   0  0  0  0  0  0  0  0  0  0  0  0
    3.0813   -2.5632    1.3125 O   0  0  0  0  0  0  0  0  0  0  0  0
    3.0795   -0.1733    1.2029 C   0  0  0  0  0  0  0  0  0  0  0  0
    2.4862    0.9035    1.3331 O   0  0  0  0  0  0  0  0  0  0  0  0
    4.5901   -0.2319    1.2117 C   0  0  0  0  0  0  0  0  0  0  0  0
    5.1684   -0.4454    2.6126 C   0  0  3  0  0  0  0  0  0  0  0  0
    4.8660   -1.7303    3.1567 O   0  0  0  0  0  0  0  0  0  0  0  0
    6.6842   -0.3690    2.5988 C   0  0  0  0  0  0  0  0  0  0  0  0
    7.3706    0.5934    3.3524 C   0  0  0  0  0  0  0  0  0  0  0  0
    8.7693    0.6290    3.3539 C   0  0  0  0  0  0  0  0  0  0  0  0
    9.4987   -0.2933    2.6027 C   0  0  0  0  0  0  0  0  0  0  0  0
    8.8257   -1.2535    1.8544 C   0  0  0  0  0  0  0  0  0  0  0  0
    9.8021   -2.5126    0.8362 Br  0  0  0  0  0  0  0  0  0  0  0  0
    7.4329   -1.2977    1.8524 C   0  0  0  0  0  0  0  0  0  0  0  0
    0.6567   -2.4960    0.8905 H   0  0  0  0  0  0  0  0  0  0  0  0
    0.5000   -0.7749    0.4362 H   0  0  0  0  0  0  0  0  0  0  0  0
    0.6957   -1.2193    2.1495 H   0  0  0  0  0  0  0  0  0  0  0  0
    2.9353   -3.1051    0.5114 H   0  0  0  0  0  0  0  0  0  0  0  0
    4.9483    0.7200    0.7994 H   0  0  0  0  0  0  0  0  0  0  0  0
    4.9120   -1.0105    0.5119 H   0  0  0  0  0  0  0  0  0  0  0  0
    4.7561    0.2998    3.3048 H   0  0  0  0  0  0  0  0  0  0  0  0
    4.2361   -2.1791    2.5614 H   0  0  0  0  0  0  0  0  0  0  0  0
    6.8232    1.3127    3.9579 H   0  0  0  0  0  0  0  0  0  0  0  0
    9.2922    1.3722    3.9507 H   0  0  0  0  0  0  0  0  0  0  0  0
   10.5843   -0.2608    2.6159 H   0  0  0  0  0  0  0  0  0  0  0  0
    6.9205   -2.0712    1.2860 H   0  0  0  0  0  0  0  0  0  0  0  0
  1  2  1  0  0  0  0
  1 16  1  0  0  0  0
  1 17  1  0  0  0  0
  1 18  1  0  0  0  0
  2  3  1  0  0  0  0
  2  4  1  0  0  0  0
  3 19  1  0  0  0  0
  4  5  2  0  0  0  0
  4  6  1  0  0  0  0
  6  7  1  0  0  0  0
  6 20  1  0  0  0  0
  6 21  1  0  0  0  0
  7  8  1  0  0  0  0
  7  9  1  0  0  0  0
  7 22  1  0  0  0  0
  8 23  1  0  0  0  0
  9 10  1  0  0  0  0
  9 15  2  0  0  0  0
 10 11  2  0  0  0  0
 10 24  1  0  0  0  0
 11 12  1  0  0  0  0
 11 25  1  0  0  0  0
 12 13  2  0  0  0  0
 12 26  1  0  0  0  0
 13 14  1  0  0  0  0
 13 15  1  0  0  0  0
 15 27  1  0  0  0  0
M  END
>  <Line_Number>
98


> <IC50>
78200

$$$$
