155550012.0
 OpenBabel09302502333D

 31 31  0  0  1  0  0  0  0  0999 V2000
    3.6642   -0.5079   -2.2385 C   0  0  0  0  0  0  0  0  0  0  0  0
    4.2160   -0.1646   -0.9709 O   0  0  0  0  0  0  0  0  0  0  0  0
    3.9776   -1.0365    0.0617 C   0  0  0  0  0  0  0  0  0  0  0  0
    3.5650   -2.3638   -0.1110 C   0  0  0  0  0  0  0  0  0  0  0  0
    3.4124   -3.2110    0.9886 C   0  0  0  0  0  0  0  0  0  0  0  0
    3.6859   -2.7463    2.2682 C   0  0  0  0  0  0  0  0  0  0  0  0
    4.0894   -1.4259    2.4512 C   0  0  0  0  0  0  0  0  0  0  0  0
    4.2226   -0.5465    1.3593 C   0  0  0  0  0  0  0  0  0  0  0  0
    4.5943    0.8978    1.6515 C   0  0  3  0  0  0  0  0  0  0  0  0
    5.8320    1.2180    0.9991 O   0  0  0  0  0  0  0  0  0  0  0  0
    3.5661    1.9453    1.2264 C   0  0  0  0  0  0  0  0  0  0  0  0
    2.2157    1.8193    1.8972 C   0  0  0  0  0  0  0  0  0  0  0  0
    1.9579    0.9987    2.7748 O   0  0  0  0  0  0  0  0  0  0  0  0
    1.2551    2.7011    1.4602 N   0  0  0  0  0  0  0  0  0  0  0  0
    1.3483    3.8603    0.5919 C   0  0  0  0  0  0  0  0  0  0  0  0
   -0.0231    2.5832    2.0545 O   0  0  0  0  0  0  0  0  0  0  0  0
    3.9193    0.2917   -2.9408 H   0  0  0  0  0  0  0  0  0  0  0  0
    2.5726   -0.5705   -2.1808 H   0  0  0  0  0  0  0  0  0  0  0  0
    4.0958   -1.4334   -2.6327 H   0  0  0  0  0  0  0  0  0  0  0  0
    3.3634   -2.7808   -1.0916 H   0  0  0  0  0  0  0  0  0  0  0  0
    3.0861   -4.2378    0.8434 H   0  0  0  0  0  0  0  0  0  0  0  0
    3.5764   -3.4040    3.1264 H   0  0  0  0  0  0  0  0  0  0  0  0
    4.2813   -1.0737    3.4634 H   0  0  0  0  0  0  0  0  0  0  0  0
    4.7834    1.0177    2.7251 H   0  0  0  0  0  0  0  0  0  0  0  0
    5.7883    0.8038    0.1166 H   0  0  0  0  0  0  0  0  0  0  0  0
    3.4246    1.9298    0.1395 H   0  0  0  0  0  0  0  0  0  0  0  0
    3.9692    2.9363    1.4731 H   0  0  0  0  0  0  0  0  0  0  0  0
    2.3637    4.0056    0.2189 H   0  0  0  0  0  0  0  0  0  0  0  0
    1.0420    4.7465    1.1533 H   0  0  0  0  0  0  0  0  0  0  0  0
    0.6677    3.7151   -0.2514 H   0  0  0  0  0  0  0  0  0  0  0  0
    0.0941    1.7925    2.6249 H   0  0  0  0  0  0  0  0  0  0  0  0
  1  2  1  0  0  0  0
  1 17  1  0  0  0  0
  1 18  1  0  0  0  0
  1 19  1  0  0  0  0
  2  3  1  0  0  0  0
  3  4  1  0  0  0  0
  3  8  2  0  0  0  0
  4  5  2  0  0  0  0
  4 20  1  0  0  0  0
  5  6  1  0  0  0  0
  5 21  1  0  0  0  0
  6  7  2  0  0  0  0
  6 22  1  0  0  0  0
  7  8  1  0  0  0  0
  7 23  1  0  0  0  0
  8  9  1  0  0  0  0
  9 10  1  0  0  0  0
  9 11  1  0  0  0  0
  9 24  1  0  0  0  0
 10 25  1  0  0  0  0
 11 12  1  0  0  0  0
 11 26  1  0  0  0  0
 11 27  1  0  0  0  0
 12 13  2  0  0  0  0
 12 14  1  0  0  0  0
 14 15  1  0  0  0  0
 14 16  1  0  0  0  0
 15 28  1  0  0  0  0
 15 29  1  0  0  0  0
 15 30  1  0  0  0  0
 16 31  1  0  0  0  0
M  END
>  <Line_Number>
99


> <IC50>
84000

$$$$
