238945.0
 OpenBabel09302502333D

 27 27  0  0  0  0  0  0  0  0999 V2000
    1.0281   -0.3384   -0.7074 C   0  0  0  0  0  0  0  0  0  0  0  0
    2.5036   -0.1779   -0.3730 C   0  0  0  0  0  0  0  0  0  0  0  0
    3.0124    1.2012   -0.7927 C   0  0  0  0  0  0  0  0  0  0  0  0
    4.4957    1.3933   -0.4540 C   0  0  0  0  0  0  0  0  0  0  0  0
    5.0065    2.7510   -0.8827 C   0  0  0  0  0  0  0  0  0  0  0  0
    4.4302    3.9224   -0.3513 C   0  0  0  0  0  0  0  0  0  0  0  0
    4.8588    5.1941   -0.7530 C   0  0  0  0  0  0  0  0  0  0  0  0
    5.8850    5.3014   -1.6828 C   0  0  0  0  0  0  0  0  0  0  0  0
    6.3389    6.5127   -2.1252 O   0  0  0  0  0  0  0  0  0  0  0  0
    6.4842    4.1568   -2.1922 C   0  0  0  0  0  0  0  0  0  0  0  0
    7.5073    4.2572   -3.0995 O   0  0  0  0  0  0  0  0  0  0  0  0
    6.0523    2.8924   -1.7978 C   0  0  0  0  0  0  0  0  0  0  0  0
    6.6756    1.7961   -2.3268 O   0  0  0  0  0  0  0  0  0  0  0  0
    0.6702   -1.3243   -0.3968 H   0  0  0  0  0  0  0  0  0  0  0  0
    0.8580   -0.2375   -1.7845 H   0  0  0  0  0  0  0  0  0  0  0  0
    0.4257    0.4191   -0.1945 H   0  0  0  0  0  0  0  0  0  0  0  0
    3.0772   -0.9611   -0.8814 H   0  0  0  0  0  0  0  0  0  0  0  0
    2.6454   -0.3164    0.7051 H   0  0  0  0  0  0  0  0  0  0  0  0
    2.4066    1.9658   -0.2918 H   0  0  0  0  0  0  0  0  0  0  0  0
    2.8612    1.3359   -1.8709 H   0  0  0  0  0  0  0  0  0  0  0  0
    5.0739    0.5936   -0.9289 H   0  0  0  0  0  0  0  0  0  0  0  0
    4.6571    1.2869    0.6260 H   0  0  0  0  0  0  0  0  0  0  0  0
    3.6301    3.8488    0.3830 H   0  0  0  0  0  0  0  0  0  0  0  0
    4.3813    6.0723   -0.3313 H   0  0  0  0  0  0  0  0  0  0  0  0
    5.7951    7.2065   -1.7139 H   0  0  0  0  0  0  0  0  0  0  0  0
    7.6238    5.2231   -3.2172 H   0  0  0  0  0  0  0  0  0  0  0  0
    7.3658    2.1668   -2.9136 H   0  0  0  0  0  0  0  0  0  0  0  0
  1  2  1  0  0  0  0
  1 14  1  0  0  0  0
  1 15  1  0  0  0  0
  1 16  1  0  0  0  0
  2  3  1  0  0  0  0
  2 17  1  0  0  0  0
  2 18  1  0  0  0  0
  3  4  1  0  0  0  0
  3 19  1  0  0  0  0
  3 20  1  0  0  0  0
  4  5  1  0  0  0  0
  4 21  1  0  0  0  0
  4 22  1  0  0  0  0
  5  6  1  0  0  0  0
  5 12  2  0  0  0  0
  6  7  2  0  0  0  0
  6 23  1  0  0  0  0
  7  8  1  0  0  0  0
  7 24  1  0  0  0  0
  8  9  1  0  0  0  0
  8 10  2  0  0  0  0
  9 25  1  0  0  0  0
 10 11  1  0  0  0  0
 10 12  1  0  0  0  0
 11 26  1  0  0  0  0
 12 13  1  0  0  0  0
 13 27  1  0  0  0  0
M  END
>  <Line_Number>
9


> <IC50>
79000

$$$$
