155547948.0
 OpenBabel09092522103D

 31 31  0  0  1  0  0  0  0  0999 V2000
    0.8354   -3.0058    3.5258 C   0  0  0  0  0  0  0  0  0  0  0  0
    2.2142   -2.7362    3.7432 O   0  0  0  0  0  0  0  0  0  0  0  0
    2.9255   -2.2668    2.6731 C   0  0  0  0  0  0  0  0  0  0  0  0
    2.4430   -2.1029    1.3755 C   0  0  0  0  0  0  0  0  0  0  0  0
    3.2808   -1.5918    0.3820 C   0  0  0  0  0  0  0  0  0  0  0  0
    4.5978   -1.2409    0.6825 C   0  0  0  0  0  0  0  0  0  0  0  0
    5.1050   -1.4066    1.9789 C   0  0  0  0  0  0  0  0  0  0  0  0
    6.5394   -1.0170    2.2789 C   0  0  3  0  0  0  0  0  0  0  0  0
    6.5635    0.0284    3.2646 O   0  0  0  0  0  0  0  0  0  0  0  0
    7.4166   -2.1447    2.8156 C   0  0  0  0  0  0  0  0  0  0  0  0
    7.6490   -3.2608    1.8254 C   0  0  0  0  0  0  0  0  0  0  0  0
    7.2422   -3.2358    0.6632 O   0  0  0  0  0  0  0  0  0  0  0  0
    8.3571   -4.3367    2.3010 N   0  0  0  0  0  0  0  0  0  0  0  0
    9.0631   -4.5408    3.5493 C   0  0  0  0  0  0  0  0  0  0  0  0
    8.5443   -5.4107    1.3977 O   0  0  0  0  0  0  0  0  0  0  0  0
    4.2527   -1.9296    2.9643 C   0  0  0  0  0  0  0  0  0  0  0  0
    0.3924   -3.2693    4.4907 H   0  0  0  0  0  0  0  0  0  0  0  0
    0.7072   -3.8588    2.8518 H   0  0  0  0  0  0  0  0  0  0  0  0
    0.3081   -2.1219    3.1516 H   0  0  0  0  0  0  0  0  0  0  0  0
    1.4274   -2.3647    1.1008 H   0  0  0  0  0  0  0  0  0  0  0  0
    2.9085   -1.4685   -0.6321 H   0  0  0  0  0  0  0  0  0  0  0  0
    5.2338   -0.8518   -0.1116 H   0  0  0  0  0  0  0  0  0  0  0  0
    7.0047   -0.5951    1.3800 H   0  0  0  0  0  0  0  0  0  0  0  0
    5.7143    0.0228    3.7387 H   0  0  0  0  0  0  0  0  0  0  0  0
    6.9841   -2.5595    3.7323 H   0  0  0  0  0  0  0  0  0  0  0  0
    8.3936   -1.7244    3.0836 H   0  0  0  0  0  0  0  0  0  0  0  0
    9.0008   -3.6634    4.1951 H   0  0  0  0  0  0  0  0  0  0  0  0
   10.1139   -4.7506    3.3277 H   0  0  0  0  0  0  0  0  0  0  0  0
    8.6235   -5.4014    4.0585 H   0  0  0  0  0  0  0  0  0  0  0  0
    8.0106   -5.1203    0.6265 H   0  0  0  0  0  0  0  0  0  0  0  0
    4.6124   -2.0750    3.9805 H   0  0  0  0  0  0  0  0  0  0  0  0
  1  2  1  0  0  0  0
  1 17  1  0  0  0  0
  1 18  1  0  0  0  0
  1 19  1  0  0  0  0
  2  3  1  0  0  0  0
  3  4  1  0  0  0  0
  3 16  2  0  0  0  0
  4  5  2  0  0  0  0
  4 20  1  0  0  0  0
  5  6  1  0  0  0  0
  5 21  1  0  0  0  0
  6  7  2  0  0  0  0
  6 22  1  0  0  0  0
  7  8  1  0  0  0  0
  7 16  1  0  0  0  0
  8  9  1  0  0  0  0
  8 10  1  0  0  0  0
  8 23  1  0  0  0  0
  9 24  1  0  0  0  0
 10 11  1  0  0  0  0
 10 25  1  0  0  0  0
 10 26  1  0  0  0  0
 11 12  2  0  0  0  0
 11 13  1  0  0  0  0
 13 14  1  0  0  0  0
 13 15  1  0  0  0  0
 14 27  1  0  0  0  0
 14 28  1  0  0  0  0
 14 29  1  0  0  0  0
 15 30  1  0  0  0  0
 16 31  1  0  0  0  0
M  END
>  <Line_Number>
100


> <IC50>
89200

$$$$
