145980667.0
 OpenBabel09092522103D

 48 50  0  0  0  0  0  0  0  0999 V2000
    0.8840    3.8802   -5.9456 C   0  0  0  0  0  0  0  0  0  0  0  0
    2.2624    3.8162   -5.6070 O   0  0  0  0  0  0  0  0  0  0  0  0
    2.6461    2.8315   -4.7378 C   0  0  0  0  0  0  0  0  0  0  0  0
    1.8146    1.8840   -4.1445 C   0  0  0  0  0  0  0  0  0  0  0  0
    2.3555    0.9187   -3.2888 C   0  0  0  0  0  0  0  0  0  0  0  0
    3.7289    0.8979   -3.0219 C   0  0  0  0  0  0  0  0  0  0  0  0
    4.5662    1.8496   -3.6105 C   0  0  0  0  0  0  0  0  0  0  0  0
    6.0533    1.8092   -3.3700 C   0  0  0  0  0  0  0  0  0  0  0  0
    6.4956    1.1232   -2.4535 O   0  0  0  0  0  0  0  0  0  0  0  0
    6.7771    2.4948   -4.3331 N   0  0  0  0  0  0  0  0  0  0  0  0
    8.0056    2.5357   -4.1158 N   0  0  0  0  0  0  0  0  0  0  0  0
    8.7552    2.0687   -5.2181 C   0  0  0  0  0  0  0  0  0  0  0  0
    8.2905    1.2204   -6.2020 C   0  0  0  0  0  0  0  0  0  0  0  0
    7.0590    0.8621   -6.5594 O   0  0  0  0  0  0  0  0  0  0  0  0
    9.3908    0.6406   -6.7692 N   0  0  0  0  0  0  0  0  0  0  0  0
    9.3480   -0.6213   -7.4968 C   0  0  0  0  0  0  0  0  0  0  0  0
    9.3747   -0.4681   -8.9906 C   0  0  0  0  0  0  0  0  0  0  0  0
    9.4569   -1.5092   -9.8434 C   0  0  0  0  0  0  0  0  0  0  0  0
    9.5317   -2.9483   -9.4038 C   0  0  0  0  0  0  0  0  0  0  0  0
    9.4646   -1.3119  -11.3342 C   0  0  0  0  0  0  0  0  0  0  0  0
   10.5337    1.3166   -6.3894 C   0  0  0  0  0  0  0  0  0  0  0  0
   11.8714    1.1382   -6.7771 C   0  0  0  0  0  0  0  0  0  0  0  0
   12.8267    2.0105   -6.2530 C   0  0  0  0  0  0  0  0  0  0  0  0
   12.4632    3.0078   -5.3524 C   0  0  0  0  0  0  0  0  0  0  0  0
   11.1378    3.1276   -4.9093 C   0  0  0  0  0  0  0  0  0  0  0  0
   10.1480    2.2702   -5.4349 C   0  0  0  0  0  0  0  0  0  0  0  0
    4.0157    2.8141   -4.4660 C   0  0  0  0  0  0  0  0  0  0  0  0
    0.7602    4.6756   -6.6873 H   0  0  0  0  0  0  0  0  0  0  0  0
    0.2805    4.1401   -5.0695 H   0  0  0  0  0  0  0  0  0  0  0  0
    0.5407    2.9457   -6.4012 H   0  0  0  0  0  0  0  0  0  0  0  0
    0.7454    1.8667   -4.3281 H   0  0  0  0  0  0  0  0  0  0  0  0
    1.7014    0.1750   -2.8348 H   0  0  0  0  0  0  0  0  0  0  0  0
    4.1350    0.1296   -2.3676 H   0  0  0  0  0  0  0  0  0  0  0  0
    6.4686    1.5310   -6.1656 H   0  0  0  0  0  0  0  0  0  0  0  0
    8.4391   -1.1477   -7.1889 H   0  0  0  0  0  0  0  0  0  0  0  0
   10.2101   -1.2085   -7.1461 H   0  0  0  0  0  0  0  0  0  0  0  0
    9.3061    0.5419   -9.3794 H   0  0  0  0  0  0  0  0  0  0  0  0
    9.5130   -3.0704   -8.3186 H   0  0  0  0  0  0  0  0  0  0  0  0
   10.4571   -3.4056   -9.7674 H   0  0  0  0  0  0  0  0  0  0  0  0
    8.6818   -3.5108   -9.8064 H   0  0  0  0  0  0  0  0  0  0  0  0
    9.4051   -0.2565  -11.6154 H   0  0  0  0  0  0  0  0  0  0  0  0
    8.6101   -1.8281  -11.7875 H   0  0  0  0  0  0  0  0  0  0  0  0
   10.3839   -1.7229  -11.7647 H   0  0  0  0  0  0  0  0  0  0  0  0
   12.1601    0.3601   -7.4775 H   0  0  0  0  0  0  0  0  0  0  0  0
   13.8649    1.9088   -6.5589 H   0  0  0  0  0  0  0  0  0  0  0  0
   13.2196    3.6968   -4.9828 H   0  0  0  0  0  0  0  0  0  0  0  0
   10.8723    3.9004   -4.1935 H   0  0  0  0  0  0  0  0  0  0  0  0
    4.6411    3.5716   -4.9344 H   0  0  0  0  0  0  0  0  0  0  0  0
  1  2  1  0  0  0  0
  1 28  1  0  0  0  0
  1 29  1  0  0  0  0
  1 30  1  0  0  0  0
  2  3  1  0  0  0  0
  3  4  1  0  0  0  0
  3 27  2  0  0  0  0
  4  5  2  0  0  0  0
  4 31  1  0  0  0  0
  5  6  1  0  0  0  0
  5 32  1  0  0  0  0
  6  7  2  0  0  0  0
  6 33  1  0  0  0  0
  7  8  1  0  0  0  0
  7 27  1  0  0  0  0
  8  9  2  0  0  0  0
  8 10  1  0  0  0  0
 10 11  2  3  0  0  0
 11 12  1  0  0  0  0
 12 13  2  0  0  0  0
 12 26  1  0  0  0  0
 13 14  1  0  0  0  0
 13 15  1  0  0  0  0
 14 34  1  0  0  0  0
 15 16  1  0  0  0  0
 15 21  1  0  0  0  0
 16 17  1  0  0  0  0
 16 35  1  0  0  0  0
 16 36  1  0  0  0  0
 17 18  2  0  0  0  0
 17 37  1  0  0  0  0
 18 19  1  0  0  0  0
 18 20  1  0  0  0  0
 19 38  1  0  0  0  0
 19 39  1  0  0  0  0
 19 40  1  0  0  0  0
 20 41  1  0  0  0  0
 20 42  1  0  0  0  0
 20 43  1  0  0  0  0
 21 22  1  0  0  0  0
 21 26  2  0  0  0  0
 22 23  2  0  0  0  0
 22 44  1  0  0  0  0
 23 24  1  0  0  0  0
 23 45  1  0  0  0  0
 24 25  2  0  0  0  0
 24 46  1  0  0  0  0
 25 26  1  0  0  0  0
 25 47  1  0  0  0  0
 27 48  1  0  0  0  0
M  END
>  <Line_Number>
102


> <IC50>
11705

$$$$
