145990691.0
 OpenBabel09092522103D

 48 50  0  0  0  0  0  0  0  0999 V2000
    2.2921  -10.6807    2.2983 C   0  0  0  0  0  0  0  0  0  0  0  0
    3.5371  -10.2867    2.8625 O   0  0  0  0  0  0  0  0  0  0  0  0
    3.6417   -8.9823    3.2601 C   0  0  0  0  0  0  0  0  0  0  0  0
    2.6505   -8.0094    3.1245 C   0  0  0  0  0  0  0  0  0  0  0  0
    2.8750   -6.7150    3.5866 C   0  0  0  0  0  0  0  0  0  0  0  0
    4.0932   -6.3818    4.1945 C   0  0  0  0  0  0  0  0  0  0  0  0
    4.2540   -5.0068    4.7161 C   0  0  0  0  0  0  0  0  0  0  0  0
    3.5220   -4.1204    4.2735 O   0  0  0  0  0  0  0  0  0  0  0  0
    5.1729   -4.8729    5.7363 N   0  0  0  0  0  0  0  0  0  0  0  0
    5.0458   -3.7537    6.2550 N   0  0  0  0  0  0  0  0  0  0  0  0
    5.6550   -3.5713    7.4934 C   0  0  0  0  0  0  0  0  0  0  0  0
    5.5055   -2.3746    8.1498 C   0  0  0  0  0  0  0  0  0  0  0  0
    4.7827   -1.2990    7.8401 O   0  0  0  0  0  0  0  0  0  0  0  0
    6.2595   -2.4395    9.2886 N   0  0  0  0  0  0  0  0  0  0  0  0
    6.5912   -1.2838   10.1133 C   0  0  0  0  0  0  0  0  0  0  0  0
    5.7416   -1.1416   11.3481 C   0  0  0  0  0  0  0  0  0  0  0  0
    5.9714   -0.2169   12.3064 C   0  0  0  0  0  0  0  0  0  0  0  0
    7.0947    0.7792   12.2524 C   0  0  0  0  0  0  0  0  0  0  0  0
    5.0846   -0.0930   13.5162 C   0  0  0  0  0  0  0  0  0  0  0  0
    6.7425   -3.7273    9.4626 C   0  0  0  0  0  0  0  0  0  0  0  0
    7.4763   -4.2954   10.5160 C   0  0  0  0  0  0  0  0  0  0  0  0
    7.7821   -5.6568   10.4476 C   0  0  0  0  0  0  0  0  0  0  0  0
    7.3914   -6.4240    9.3555 C   0  0  0  0  0  0  0  0  0  0  0  0
    6.7010   -5.8412    8.2873 C   0  0  0  0  0  0  0  0  0  0  0  0
    6.3599   -4.4710    8.3355 C   0  0  0  0  0  0  0  0  0  0  0  0
    5.0946   -7.3500    4.3222 C   0  0  0  0  0  0  0  0  0  0  0  0
    4.8629   -8.6440    3.8500 C   0  0  0  0  0  0  0  0  0  0  0  0
    2.3392  -11.7560    2.1033 H   0  0  0  0  0  0  0  0  0  0  0  0
    2.1190  -10.1721    1.3441 H   0  0  0  0  0  0  0  0  0  0  0  0
    1.4647  -10.5067    2.9946 H   0  0  0  0  0  0  0  0  0  0  0  0
    1.6878   -8.2235    2.6730 H   0  0  0  0  0  0  0  0  0  0  0  0
    2.0881   -5.9678    3.4941 H   0  0  0  0  0  0  0  0  0  0  0  0
    4.2382   -1.5560    7.0676 H   0  0  0  0  0  0  0  0  0  0  0  0
    6.4846   -0.3952    9.4834 H   0  0  0  0  0  0  0  0  0  0  0  0
    7.6480   -1.3886   10.3747 H   0  0  0  0  0  0  0  0  0  0  0  0
    4.8976   -1.8166   11.4407 H   0  0  0  0  0  0  0  0  0  0  0  0
    7.7145    0.6853   11.3571 H   0  0  0  0  0  0  0  0  0  0  0  0
    7.7513    0.6509   13.1179 H   0  0  0  0  0  0  0  0  0  0  0  0
    6.6959    1.7998   12.2624 H   0  0  0  0  0  0  0  0  0  0  0  0
    4.2854   -0.8399   13.5290 H   0  0  0  0  0  0  0  0  0  0  0  0
    4.6189    0.8975   13.5415 H   0  0  0  0  0  0  0  0  0  0  0  0
    5.6766   -0.2195   14.4286 H   0  0  0  0  0  0  0  0  0  0  0  0
    7.7747   -3.7085   11.3794 H   0  0  0  0  0  0  0  0  0  0  0  0
    8.3242   -6.1237   11.2662 H   0  0  0  0  0  0  0  0  0  0  0  0
    7.6175   -7.4874    9.3328 H   0  0  0  0  0  0  0  0  0  0  0  0
    6.4039   -6.4572    7.4453 H   0  0  0  0  0  0  0  0  0  0  0  0
    6.0523   -7.1147    4.7775 H   0  0  0  0  0  0  0  0  0  0  0  0
    5.6389   -9.3999    3.9474 H   0  0  0  0  0  0  0  0  0  0  0  0
  1  2  1  0  0  0  0
  1 28  1  0  0  0  0
  1 29  1  0  0  0  0
  1 30  1  0  0  0  0
  2  3  1  0  0  0  0
  3  4  1  0  0  0  0
  3 27  2  0  0  0  0
  4  5  2  0  0  0  0
  4 31  1  0  0  0  0
  5  6  1  0  0  0  0
  5 32  1  0  0  0  0
  6  7  1  0  0  0  0
  6 26  2  0  0  0  0
  7  8  2  0  0  0  0
  7  9  1  0  0  0  0
  9 10  2  3  0  0  0
 10 11  1  0  0  0  0
 11 12  2  0  0  0  0
 11 25  1  0  0  0  0
 12 13  1  0  0  0  0
 12 14  1  0  0  0  0
 13 33  1  0  0  0  0
 14 15  1  0  0  0  0
 14 20  1  0  0  0  0
 15 16  1  0  0  0  0
 15 34  1  0  0  0  0
 15 35  1  0  0  0  0
 16 17  2  0  0  0  0
 16 36  1  0  0  0  0
 17 18  1  0  0  0  0
 17 19  1  0  0  0  0
 18 37  1  0  0  0  0
 18 38  1  0  0  0  0
 18 39  1  0  0  0  0
 19 40  1  0  0  0  0
 19 41  1  0  0  0  0
 19 42  1  0  0  0  0
 20 21  1  0  0  0  0
 20 25  2  0  0  0  0
 21 22  2  0  0  0  0
 21 43  1  0  0  0  0
 22 23  1  0  0  0  0
 22 44  1  0  0  0  0
 23 24  2  0  0  0  0
 23 45  1  0  0  0  0
 24 25  1  0  0  0  0
 24 46  1  0  0  0  0
 26 27  1  0  0  0  0
 26 47  1  0  0  0  0
 27 48  1  0  0  0  0
M  END
>  <Line_Number>
104


> <IC50>
8645

$$$$
