145986843.0
 OpenBabel09092522103D

 44 46  0  0  0  0  0  0  0  0999 V2000
    6.4171   -0.5117   -2.4628 C   0  0  0  0  0  0  0  0  0  0  0  0
    5.3162   -0.1008   -1.5224 C   0  0  0  0  0  0  0  0  0  0  0  0
    3.9110   -0.4727   -1.9045 C   0  0  0  0  0  0  0  0  0  0  0  0
    5.6172    0.5298   -0.3691 C   0  0  0  0  0  0  0  0  0  0  0  0
    4.6381    0.9598    0.6877 C   0  0  0  0  0  0  0  0  0  0  0  0
    5.0454    2.2053    1.3353 N   0  0  0  0  0  0  0  0  0  0  0  0
    4.6890    3.4817    0.9377 C   0  0  0  0  0  0  0  0  0  0  0  0
    3.9741    3.7401   -0.1568 O   0  0  0  0  0  0  0  0  0  0  0  0
    5.2051    4.3453    1.8887 C   0  0  0  0  0  0  0  0  0  0  0  0
    5.1109    5.7465    1.9448 N   0  0  0  0  0  0  0  0  0  0  0  0
    4.9797    6.2822    0.8261 N   0  0  0  0  0  0  0  0  0  0  0  0
    4.9348    7.6571    0.9081 C   0  0  0  0  0  0  0  0  0  0  0  0
    5.3976    8.3481    1.8140 O   0  0  0  0  0  0  0  0  0  0  0  0
    4.2937    8.3388   -0.2597 C   0  0  0  0  0  0  0  0  0  0  0  0
    3.6722    7.6089   -1.2851 C   0  0  0  0  0  0  0  0  0  0  0  0
    3.1010    8.2724   -2.3745 C   0  0  0  0  0  0  0  0  0  0  0  0
    3.1478    9.6643   -2.4479 C   0  0  0  0  0  0  0  0  0  0  0  0
    3.7577   10.3907   -1.4264 C   0  0  0  0  0  0  0  0  0  0  0  0
    3.8259   12.2770   -1.5335 Br  0  0  0  0  0  0  0  0  0  0  0  0
    4.3248    9.7391   -0.3314 C   0  0  0  0  0  0  0  0  0  0  0  0
    5.8914    3.5934    2.8767 C   0  0  0  0  0  0  0  0  0  0  0  0
    6.5910    3.9224    4.0577 C   0  0  0  0  0  0  0  0  0  0  0  0
    7.1935    2.9095    4.8106 C   0  0  0  0  0  0  0  0  0  0  0  0
    7.1111    1.5818    4.4029 C   0  0  0  0  0  0  0  0  0  0  0  0
    6.4169    1.2286    3.2421 C   0  0  0  0  0  0  0  0  0  0  0  0
    5.8055    2.2526    2.4958 C   0  0  0  0  0  0  0  0  0  0  0  0
    6.0275   -1.0037   -3.3596 H   0  0  0  0  0  0  0  0  0  0  0  0
    7.0945   -1.2177   -1.9721 H   0  0  0  0  0  0  0  0  0  0  0  0
    6.9911    0.3609   -2.7913 H   0  0  0  0  0  0  0  0  0  0  0  0
    3.8736   -1.0011   -2.8623 H   0  0  0  0  0  0  0  0  0  0  0  0
    3.2888    0.4227   -2.0038 H   0  0  0  0  0  0  0  0  0  0  0  0
    3.4709   -1.1339   -1.1509 H   0  0  0  0  0  0  0  0  0  0  0  0
    6.6657    0.7360   -0.1500 H   0  0  0  0  0  0  0  0  0  0  0  0
    4.5650    0.1891    1.4626 H   0  0  0  0  0  0  0  0  0  0  0  0
    3.6281    1.1118    0.2958 H   0  0  0  0  0  0  0  0  0  0  0  0
    3.9471    2.9563   -0.7289 H   0  0  0  0  0  0  0  0  0  0  0  0
    3.6249    6.5216   -1.2496 H   0  0  0  0  0  0  0  0  0  0  0  0
    2.6224    7.7020   -3.1673 H   0  0  0  0  0  0  0  0  0  0  0  0
    2.7083   10.1720   -3.3028 H   0  0  0  0  0  0  0  0  0  0  0  0
    4.7978   10.3151    0.4616 H   0  0  0  0  0  0  0  0  0  0  0  0
    6.6658    4.9591    4.3759 H   0  0  0  0  0  0  0  0  0  0  0  0
    7.7339    3.1648    5.7192 H   0  0  0  0  0  0  0  0  0  0  0  0
    7.5927    0.8060    4.9943 H   0  0  0  0  0  0  0  0  0  0  0  0
    6.3658    0.1899    2.9374 H   0  0  0  0  0  0  0  0  0  0  0  0
  1  2  1  0  0  0  0
  1 27  1  0  0  0  0
  1 28  1  0  0  0  0
  1 29  1  0  0  0  0
  2  3  1  0  0  0  0
  2  4  2  0  0  0  0
  3 30  1  0  0  0  0
  3 31  1  0  0  0  0
  3 32  1  0  0  0  0
  4  5  1  0  0  0  0
  4 33  1  0  0  0  0
  5  6  1  0  0  0  0
  5 34  1  0  0  0  0
  5 35  1  0  0  0  0
  6  7  1  0  0  0  0
  6 26  1  0  0  0  0
  7  8  1  0  0  0  0
  7  9  2  0  0  0  0
  8 36  1  0  0  0  0
  9 10  1  0  0  0  0
  9 21  1  0  0  0  0
 10 11  2  3  0  0  0
 11 12  1  0  0  0  0
 12 13  2  0  0  0  0
 12 14  1  0  0  0  0
 14 15  1  0  0  0  0
 14 20  2  0  0  0  0
 15 16  2  0  0  0  0
 15 37  1  0  0  0  0
 16 17  1  0  0  0  0
 16 38  1  0  0  0  0
 17 18  2  0  0  0  0
 17 39  1  0  0  0  0
 18 19  1  0  0  0  0
 18 20  1  0  0  0  0
 20 40  1  0  0  0  0
 21 22  1  0  0  0  0
 21 26  2  0  0  0  0
 22 23  2  0  0  0  0
 22 41  1  0  0  0  0
 23 24  1  0  0  0  0
 23 42  1  0  0  0  0
 24 25  2  0  0  0  0
 24 43  1  0  0  0  0
 25 26  1  0  0  0  0
 25 44  1  0  0  0  0
M  END
>  <Line_Number>
106


> <IC50>
39050

$$$$
