145980829.0
 OpenBabel09092522103D

 44 46  0  0  0  0  0  0  0  0999 V2000
    6.8331    0.9786   -2.0057 C   0  0  0  0  0  0  0  0  0  0  0  0
    5.8330    0.6931   -0.9174 C   0  0  0  0  0  0  0  0  0  0  0  0
    5.0222    1.8515   -0.4080 C   0  0  0  0  0  0  0  0  0  0  0  0
    5.6681   -0.5667   -0.4658 C   0  0  0  0  0  0  0  0  0  0  0  0
    4.7125   -0.9961    0.6135 C   0  0  0  0  0  0  0  0  0  0  0  0
    5.1898   -2.1818    1.3246 N   0  0  0  0  0  0  0  0  0  0  0  0
    5.9933   -2.1866    2.4488 C   0  0  0  0  0  0  0  0  0  0  0  0
    6.5085   -1.0819    2.9918 O   0  0  0  0  0  0  0  0  0  0  0  0
    6.1168   -3.5091    2.8394 C   0  0  0  0  0  0  0  0  0  0  0  0
    6.8645   -4.0358    3.9082 N   0  0  0  0  0  0  0  0  0  0  0  0
    6.9534   -3.2516    4.8728 N   0  0  0  0  0  0  0  0  0  0  0  0
    7.7482   -3.7269    5.8939 C   0  0  0  0  0  0  0  0  0  0  0  0
    8.3306   -4.8086    5.9352 O   0  0  0  0  0  0  0  0  0  0  0  0
    7.8798   -2.7890    7.0569 C   0  0  0  0  0  0  0  0  0  0  0  0
    8.6875   -3.1451    8.1478 C   0  0  0  0  0  0  0  0  0  0  0  0
    8.8045   -2.2907    9.2495 C   0  0  0  0  0  0  0  0  0  0  0  0
    8.1133   -1.0799    9.2629 C   0  0  0  0  0  0  0  0  0  0  0  0
    8.2531    0.0673   10.7586 Br  0  0  0  0  0  0  0  0  0  0  0  0
    7.3147   -0.7096    8.1828 C   0  0  0  0  0  0  0  0  0  0  0  0
    7.1994   -1.5609    7.0802 C   0  0  0  0  0  0  0  0  0  0  0  0
    5.3978   -4.3291    1.9316 C   0  0  0  0  0  0  0  0  0  0  0  0
    5.1670   -5.7171    1.8242 C   0  0  0  0  0  0  0  0  0  0  0  0
    4.3943   -6.2110    0.7678 C   0  0  0  0  0  0  0  0  0  0  0  0
    3.8631   -5.3469   -0.1837 C   0  0  0  0  0  0  0  0  0  0  0  0
    4.0773   -3.9689   -0.1006 C   0  0  0  0  0  0  0  0  0  0  0  0
    4.8391   -3.4779    0.9742 C   0  0  0  0  0  0  0  0  0  0  0  0
    6.8039    2.0255   -2.3239 H   0  0  0  0  0  0  0  0  0  0  0  0
    6.6291    0.3652   -2.8900 H   0  0  0  0  0  0  0  0  0  0  0  0
    7.8491    0.7697   -1.6552 H   0  0  0  0  0  0  0  0  0  0  0  0
    5.2536    2.7788   -0.9409 H   0  0  0  0  0  0  0  0  0  0  0  0
    5.2225    2.0252    0.6538 H   0  0  0  0  0  0  0  0  0  0  0  0
    3.9524    1.6595   -0.5446 H   0  0  0  0  0  0  0  0  0  0  0  0
    6.2677   -1.3610   -0.9133 H   0  0  0  0  0  0  0  0  0  0  0  0
    3.7367   -1.2364    0.1800 H   0  0  0  0  0  0  0  0  0  0  0  0
    4.5493   -0.2145    1.3625 H   0  0  0  0  0  0  0  0  0  0  0  0
    6.4528   -0.3440    2.3627 H   0  0  0  0  0  0  0  0  0  0  0  0
    9.2285   -4.0902    8.1464 H   0  0  0  0  0  0  0  0  0  0  0  0
    9.4316   -2.5805   10.0890 H   0  0  0  0  0  0  0  0  0  0  0  0
    6.7757    0.2347    8.1876 H   0  0  0  0  0  0  0  0  0  0  0  0
    6.5707   -1.2519    6.2470 H   0  0  0  0  0  0  0  0  0  0  0  0
    5.5848   -6.3978    2.5613 H   0  0  0  0  0  0  0  0  0  0  0  0
    4.2115   -7.2798    0.6901 H   0  0  0  0  0  0  0  0  0  0  0  0
    3.2716   -5.7470   -1.0042 H   0  0  0  0  0  0  0  0  0  0  0  0
    3.6601   -3.3091   -0.8550 H   0  0  0  0  0  0  0  0  0  0  0  0
  1  2  1  0  0  0  0
  1 27  1  0  0  0  0
  1 28  1  0  0  0  0
  1 29  1  0  0  0  0
  2  3  1  0  0  0  0
  2  4  2  0  0  0  0
  3 30  1  0  0  0  0
  3 31  1  0  0  0  0
  3 32  1  0  0  0  0
  4  5  1  0  0  0  0
  4 33  1  0  0  0  0
  5  6  1  0  0  0  0
  5 34  1  0  0  0  0
  5 35  1  0  0  0  0
  6  7  1  0  0  0  0
  6 26  1  0  0  0  0
  7  8  1  0  0  0  0
  7  9  2  0  0  0  0
  8 36  1  0  0  0  0
  9 10  1  0  0  0  0
  9 21  1  0  0  0  0
 10 11  2  3  0  0  0
 11 12  1  0  0  0  0
 12 13  2  0  0  0  0
 12 14  1  0  0  0  0
 14 15  1  0  0  0  0
 14 20  2  0  0  0  0
 15 16  2  0  0  0  0
 15 37  1  0  0  0  0
 16 17  1  0  0  0  0
 16 38  1  0  0  0  0
 17 18  1  0  0  0  0
 17 19  2  0  0  0  0
 19 20  1  0  0  0  0
 19 39  1  0  0  0  0
 20 40  1  0  0  0  0
 21 22  1  0  0  0  0
 21 26  2  0  0  0  0
 22 23  2  0  0  0  0
 22 41  1  0  0  0  0
 23 24  1  0  0  0  0
 23 42  1  0  0  0  0
 24 25  2  0  0  0  0
 24 43  1  0  0  0  0
 25 26  1  0  0  0  0
 25 44  1  0  0  0  0
M  END
>  <Line_Number>
107


> <IC50>
110450

$$$$
