145979868.0
 OpenBabel09092522103D

 53 55  0  0  0  0  0  0  0  0999 V2000
    1.5740    0.6953   -1.9088 C   0  0  0  0  0  0  0  0  0  0  0  0
    2.6422    0.2879   -0.9273 C   0  0  0  0  0  0  0  0  0  0  0  0
    2.5549    0.8770    0.4535 C   0  0  0  0  0  0  0  0  0  0  0  0
    3.6255   -0.5600   -1.2978 C   0  0  0  0  0  0  0  0  0  0  0  0
    4.7176   -1.0771   -0.3961 C   0  0  0  0  0  0  0  0  0  0  0  0
    5.2136   -2.3898   -0.8159 N   0  0  0  0  0  0  0  0  0  0  0  0
    6.2670   -2.6236   -1.6843 C   0  0  0  0  0  0  0  0  0  0  0  0
    7.0051   -1.6622   -2.2425 O   0  0  0  0  0  0  0  0  0  0  0  0
    6.3545   -3.9955   -1.8403 C   0  0  0  0  0  0  0  0  0  0  0  0
    7.2209   -4.7185   -2.6817 N   0  0  0  0  0  0  0  0  0  0  0  0
    8.3141   -4.1469   -2.8667 N   0  0  0  0  0  0  0  0  0  0  0  0
    9.1235   -4.7876   -3.7787 C   0  0  0  0  0  0  0  0  0  0  0  0
    8.8541   -5.8149   -4.4030 O   0  0  0  0  0  0  0  0  0  0  0  0
   10.4550   -4.1365   -4.0024 C   0  0  0  0  0  0  0  0  0  0  0  0
   11.3405   -4.6782   -4.9426 C   0  0  0  0  0  0  0  0  0  0  0  0
   12.6123   -4.1200   -5.1239 C   0  0  0  0  0  0  0  0  0  0  0  0
   13.0282   -3.0132   -4.3680 C   0  0  0  0  0  0  0  0  0  0  0  0
   14.4457   -2.4837   -4.5203 C   0  0  0  0  0  0  0  0  0  0  0  0
   14.4839   -1.0287   -4.9924 C   0  0  0  0  0  0  0  0  0  0  0  0
   15.2443   -2.6463   -3.2225 C   0  0  0  0  0  0  0  0  0  0  0  0
   12.1220   -2.4523   -3.4560 C   0  0  0  0  0  0  0  0  0  0  0  0
   10.8484   -3.0066   -3.2740 C   0  0  0  0  0  0  0  0  0  0  0  0
    5.3594   -4.6179   -1.0423 C   0  0  0  0  0  0  0  0  0  0  0  0
    4.9793   -5.9566   -0.8084 C   0  0  0  0  0  0  0  0  0  0  0  0
    3.9336   -6.2358    0.0765 C   0  0  0  0  0  0  0  0  0  0  0  0
    3.2666   -5.2044    0.7285 C   0  0  0  0  0  0  0  0  0  0  0  0
    3.6177   -3.8683    0.5077 C   0  0  0  0  0  0  0  0  0  0  0  0
    4.6679   -3.5935   -0.3871 C   0  0  0  0  0  0  0  0  0  0  0  0
    0.9217    1.4752   -1.5032 H   0  0  0  0  0  0  0  0  0  0  0  0
    0.9419   -0.1624   -2.1613 H   0  0  0  0  0  0  0  0  0  0  0  0
    2.0185    1.0930   -2.8272 H   0  0  0  0  0  0  0  0  0  0  0  0
    1.7361    1.5981    0.5412 H   0  0  0  0  0  0  0  0  0  0  0  0
    3.4793    1.4101    0.7002 H   0  0  0  0  0  0  0  0  0  0  0  0
    2.3820    0.0936    1.1979 H   0  0  0  0  0  0  0  0  0  0  0  0
    3.6311   -0.9308   -2.3233 H   0  0  0  0  0  0  0  0  0  0  0  0
    4.3830   -1.1727    0.6413 H   0  0  0  0  0  0  0  0  0  0  0  0
    5.5639   -0.3843   -0.3938 H   0  0  0  0  0  0  0  0  0  0  0  0
    6.7055   -0.7824   -1.9699 H   0  0  0  0  0  0  0  0  0  0  0  0
   11.0522   -5.5466   -5.5329 H   0  0  0  0  0  0  0  0  0  0  0  0
   13.2828   -4.5723   -5.8524 H   0  0  0  0  0  0  0  0  0  0  0  0
   14.9583   -3.0808   -5.2862 H   0  0  0  0  0  0  0  0  0  0  0  0
   13.9966   -0.3516   -4.2830 H   0  0  0  0  0  0  0  0  0  0  0  0
   13.9841   -0.9186   -5.9607 H   0  0  0  0  0  0  0  0  0  0  0  0
   15.5203   -0.6925   -5.1121 H   0  0  0  0  0  0  0  0  0  0  0  0
   14.8334   -2.0379   -2.4094 H   0  0  0  0  0  0  0  0  0  0  0  0
   16.2859   -2.3409   -3.3713 H   0  0  0  0  0  0  0  0  0  0  0  0
   15.2471   -3.6906   -2.8910 H   0  0  0  0  0  0  0  0  0  0  0  0
   12.4041   -1.5869   -2.8597 H   0  0  0  0  0  0  0  0  0  0  0  0
   10.1803   -2.5496   -2.5472 H   0  0  0  0  0  0  0  0  0  0  0  0
    5.4999   -6.7663   -1.3127 H   0  0  0  0  0  0  0  0  0  0  0  0
    3.6410   -7.2680    0.2539 H   0  0  0  0  0  0  0  0  0  0  0  0
    2.4573   -5.4382    1.4168 H   0  0  0  0  0  0  0  0  0  0  0  0
    3.0798   -3.0761    1.0193 H   0  0  0  0  0  0  0  0  0  0  0  0
  1  2  1  0  0  0  0
  1 29  1  0  0  0  0
  1 30  1  0  0  0  0
  1 31  1  0  0  0  0
  2  3  1  0  0  0  0
  2  4  2  0  0  0  0
  3 32  1  0  0  0  0
  3 33  1  0  0  0  0
  3 34  1  0  0  0  0
  4  5  1  0  0  0  0
  4 35  1  0  0  0  0
  5  6  1  0  0  0  0
  5 36  1  0  0  0  0
  5 37  1  0  0  0  0
  6  7  1  0  0  0  0
  6 28  1  0  0  0  0
  7  8  1  0  0  0  0
  7  9  2  0  0  0  0
  8 38  1  0  0  0  0
  9 10  1  0  0  0  0
  9 23  1  0  0  0  0
 10 11  2  3  0  0  0
 11 12  1  0  0  0  0
 12 13  2  0  0  0  0
 12 14  1  0  0  0  0
 14 15  1  0  0  0  0
 14 22  2  0  0  0  0
 15 16  2  0  0  0  0
 15 39  1  0  0  0  0
 16 17  1  0  0  0  0
 16 40  1  0  0  0  0
 17 18  1  0  0  0  0
 17 21  2  0  0  0  0
 18 19  1  0  0  0  0
 18 20  1  0  0  0  0
 18 41  1  0  0  0  0
 19 42  1  0  0  0  0
 19 43  1  0  0  0  0
 19 44  1  0  0  0  0
 20 45  1  0  0  0  0
 20 46  1  0  0  0  0
 20 47  1  0  0  0  0
 21 22  1  0  0  0  0
 21 48  1  0  0  0  0
 22 49  1  0  0  0  0
 23 24  1  0  0  0  0
 23 28  2  0  0  0  0
 24 25  2  0  0  0  0
 24 50  1  0  0  0  0
 25 26  1  0  0  0  0
 25 51  1  0  0  0  0
 26 27  2  0  0  0  0
 26 52  1  0  0  0  0
 27 28  1  0  0  0  0
 27 53  1  0  0  0  0
M  END
>  <Line_Number>
110


> <IC50>
21200

$$$$
