145980959.0
 OpenBabel09092522103D

 44 46  0  0  0  0  0  0  0  0999 V2000
    6.1221   -0.7913    2.4591 C   0  0  0  0  0  0  0  0  0  0  0  0
    5.1413   -0.2143    1.4733 C   0  0  0  0  0  0  0  0  0  0  0  0
    3.7089   -0.6527    1.5940 C   0  0  0  0  0  0  0  0  0  0  0  0
    5.5745    0.6150    0.5022 C   0  0  0  0  0  0  0  0  0  0  0  0
    4.7355    1.2086   -0.5953 C   0  0  0  0  0  0  0  0  0  0  0  0
    5.1753    2.5545   -0.9582 N   0  0  0  0  0  0  0  0  0  0  0  0
    4.6705    3.7369   -0.4490 C   0  0  0  0  0  0  0  0  0  0  0  0
    3.7765    3.7886    0.5410 O   0  0  0  0  0  0  0  0  0  0  0  0
    5.2461    4.7578   -1.1832 C   0  0  0  0  0  0  0  0  0  0  0  0
    4.9958    6.1379   -1.0970 N   0  0  0  0  0  0  0  0  0  0  0  0
    4.6594    6.5066    0.0464 N   0  0  0  0  0  0  0  0  0  0  0  0
    4.2688    7.8274    0.0744 C   0  0  0  0  0  0  0  0  0  0  0  0
    4.6820    8.7247   -0.6589 O   0  0  0  0  0  0  0  0  0  0  0  0
    3.2510    8.1577    1.1200 C   0  0  0  0  0  0  0  0  0  0  0  0
    2.7875    7.1869    2.0225 C   0  0  0  0  0  0  0  0  0  0  0  0
    1.8211    7.5143    2.9769 C   0  0  0  0  0  0  0  0  0  0  0  0
    1.3096    8.8103    3.0334 C   0  0  0  0  0  0  0  0  0  0  0  0
    1.7699    9.7767    2.1393 C   0  0  0  0  0  0  0  0  0  0  0  0
    1.1250   11.3706    2.2085 Cl  0  0  0  0  0  0  0  0  0  0  0  0
    2.7380    9.4604    1.1870 C   0  0  0  0  0  0  0  0  0  0  0  0
    6.1423    4.2001   -2.1321 C   0  0  0  0  0  0  0  0  0  0  0  0
    6.9871    4.7363   -3.1271 C   0  0  0  0  0  0  0  0  0  0  0  0
    7.7690    3.8784   -3.9083 C   0  0  0  0  0  0  0  0  0  0  0  0
    7.7199    2.5028   -3.7118 C   0  0  0  0  0  0  0  0  0  0  0  0
    6.8864    1.9458   -2.7382 C   0  0  0  0  0  0  0  0  0  0  0  0
    6.1003    2.8141   -1.9599 C   0  0  0  0  0  0  0  0  0  0  0  0
    5.6271   -1.4059    3.2174 H   0  0  0  0  0  0  0  0  0  0  0  0
    6.6614    0.0044    2.9831 H   0  0  0  0  0  0  0  0  0  0  0  0
    6.8467   -1.4307    1.9428 H   0  0  0  0  0  0  0  0  0  0  0  0
    3.5577   -1.3283    2.4415 H   0  0  0  0  0  0  0  0  0  0  0  0
    3.3928   -1.1854    0.6911 H   0  0  0  0  0  0  0  0  0  0  0  0
    3.0541    0.2110    1.7490 H   0  0  0  0  0  0  0  0  0  0  0  0
    6.6363    0.8639    0.4687 H   0  0  0  0  0  0  0  0  0  0  0  0
    3.6747    1.2703   -0.3321 H   0  0  0  0  0  0  0  0  0  0  0  0
    4.8029    0.5849   -1.4919 H   0  0  0  0  0  0  0  0  0  0  0  0
    3.7286    2.9289    0.9901 H   0  0  0  0  0  0  0  0  0  0  0  0
    3.1665    6.1667    1.9920 H   0  0  0  0  0  0  0  0  0  0  0  0
    1.4642    6.7573    3.6716 H   0  0  0  0  0  0  0  0  0  0  0  0
    0.5522    9.0595    3.7722 H   0  0  0  0  0  0  0  0  0  0  0  0
    3.0864   10.2239    0.4943 H   0  0  0  0  0  0  0  0  0  0  0  0
    7.0317    5.8109   -3.2842 H   0  0  0  0  0  0  0  0  0  0  0  0
    8.4205    4.2929   -4.6738 H   0  0  0  0  0  0  0  0  0  0  0  0
    8.3357    1.8487   -4.3255 H   0  0  0  0  0  0  0  0  0  0  0  0
    6.8578    0.8695   -2.5998 H   0  0  0  0  0  0  0  0  0  0  0  0
  1  2  1  0  0  0  0
  1 27  1  0  0  0  0
  1 28  1  0  0  0  0
  1 29  1  0  0  0  0
  2  3  1  0  0  0  0
  2  4  2  0  0  0  0
  3 30  1  0  0  0  0
  3 31  1  0  0  0  0
  3 32  1  0  0  0  0
  4  5  1  0  0  0  0
  4 33  1  0  0  0  0
  5  6  1  0  0  0  0
  5 34  1  0  0  0  0
  5 35  1  0  0  0  0
  6  7  1  0  0  0  0
  6 26  1  0  0  0  0
  7  8  1  0  0  0  0
  7  9  2  0  0  0  0
  8 36  1  0  0  0  0
  9 10  1  0  0  0  0
  9 21  1  0  0  0  0
 10 11  2  3  0  0  0
 11 12  1  0  0  0  0
 12 13  2  0  0  0  0
 12 14  1  0  0  0  0
 14 15  1  0  0  0  0
 14 20  2  0  0  0  0
 15 16  2  0  0  0  0
 15 37  1  0  0  0  0
 16 17  1  0  0  0  0
 16 38  1  0  0  0  0
 17 18  2  0  0  0  0
 17 39  1  0  0  0  0
 18 19  1  0  0  0  0
 18 20  1  0  0  0  0
 20 40  1  0  0  0  0
 21 22  1  0  0  0  0
 21 26  2  0  0  0  0
 22 23  2  0  0  0  0
 22 41  1  0  0  0  0
 23 24  1  0  0  0  0
 23 42  1  0  0  0  0
 24 25  2  0  0  0  0
 24 43  1  0  0  0  0
 25 26  1  0  0  0  0
 25 44  1  0  0  0  0
M  END
>  <Line_Number>
111


> <IC50>
55300

$$$$
