145990246.0
 OpenBabel09092522103D

 44 46  0  0  0  0  0  0  0  0999 V2000
    6.6853    0.1079    2.2833 C   0  0  0  0  0  0  0  0  0  0  0  0
    5.5184    0.3410    1.3622 C   0  0  0  0  0  0  0  0  0  0  0  0
    4.1408    0.2329    1.9541 C   0  0  0  0  0  0  0  0  0  0  0  0
    5.7304    0.5950    0.0554 C   0  0  0  0  0  0  0  0  0  0  0  0
    4.6647    0.8105   -0.9824 C   0  0  0  0  0  0  0  0  0  0  0  0
    5.0838    1.7594   -2.0124 N   0  0  0  0  0  0  0  0  0  0  0  0
    4.8885    3.1293   -1.9881 C   0  0  0  0  0  0  0  0  0  0  0  0
    4.3504    3.7827   -0.9565 O   0  0  0  0  0  0  0  0  0  0  0  0
    5.3243    3.6113   -3.2100 C   0  0  0  0  0  0  0  0  0  0  0  0
    5.2658    4.9307   -3.6969 N   0  0  0  0  0  0  0  0  0  0  0  0
    5.3397    5.7950   -2.8001 N   0  0  0  0  0  0  0  0  0  0  0  0
    5.1626    7.0802   -3.2712 C   0  0  0  0  0  0  0  0  0  0  0  0
    4.9715    7.4171   -4.4373 O   0  0  0  0  0  0  0  0  0  0  0  0
    5.2130    8.1449   -2.2155 C   0  0  0  0  0  0  0  0  0  0  0  0
    5.0000    9.4886   -2.5686 C   0  0  0  0  0  0  0  0  0  0  0  0
    5.0472   10.4922   -1.5953 C   0  0  0  0  0  0  0  0  0  0  0  0
    5.3081   10.1516   -0.2714 C   0  0  0  0  0  0  0  0  0  0  0  0
    5.3557   11.1118    0.6601 F   0  0  0  0  0  0  0  0  0  0  0  0
    5.5200    8.8289    0.0967 C   0  0  0  0  0  0  0  0  0  0  0  0
    5.4711    7.8234   -0.8710 C   0  0  0  0  0  0  0  0  0  0  0  0
    5.8103    2.5271   -3.9885 C   0  0  0  0  0  0  0  0  0  0  0  0
    6.3531    2.4067   -5.2859 C   0  0  0  0  0  0  0  0  0  0  0  0
    6.7513    1.1513   -5.7588 C   0  0  0  0  0  0  0  0  0  0  0  0
    6.6190    0.0207   -4.9600 C   0  0  0  0  0  0  0  0  0  0  0  0
    6.0798    0.1107   -3.6752 C   0  0  0  0  0  0  0  0  0  0  0  0
    5.6732    1.3748   -3.2090 C   0  0  0  0  0  0  0  0  0  0  0  0
    6.3627   -0.0864    3.3113 H   0  0  0  0  0  0  0  0  0  0  0  0
    7.3403    0.9852    2.3053 H   0  0  0  0  0  0  0  0  0  0  0  0
    7.2662   -0.7606    1.9545 H   0  0  0  0  0  0  0  0  0  0  0  0
    4.1703    0.0080    3.0241 H   0  0  0  0  0  0  0  0  0  0  0  0
    3.5762   -0.5695    1.4669 H   0  0  0  0  0  0  0  0  0  0  0  0
    3.5972    1.1759    1.8353 H   0  0  0  0  0  0  0  0  0  0  0  0
    6.7591    0.6332   -0.3075 H   0  0  0  0  0  0  0  0  0  0  0  0
    3.7281    1.1846   -0.5574 H   0  0  0  0  0  0  0  0  0  0  0  0
    4.4275   -0.1379   -1.4759 H   0  0  0  0  0  0  0  0  0  0  0  0
    4.1829    3.1778   -0.2167 H   0  0  0  0  0  0  0  0  0  0  0  0
    4.7956    9.7615   -3.6045 H   0  0  0  0  0  0  0  0  0  0  0  0
    4.8835   11.5304   -1.8599 H   0  0  0  0  0  0  0  0  0  0  0  0
    5.7215    8.5865    1.1386 H   0  0  0  0  0  0  0  0  0  0  0  0
    5.6365    6.7930   -0.5637 H   0  0  0  0  0  0  0  0  0  0  0  0
    6.4606    3.2866   -5.9149 H   0  0  0  0  0  0  0  0  0  0  0  0
    7.1679    1.0611   -6.7585 H   0  0  0  0  0  0  0  0  0  0  0  0
    6.9358   -0.9478   -5.3401 H   0  0  0  0  0  0  0  0  0  0  0  0
    5.9802   -0.7829   -3.0658 H   0  0  0  0  0  0  0  0  0  0  0  0
  1  2  1  0  0  0  0
  1 27  1  0  0  0  0
  1 28  1  0  0  0  0
  1 29  1  0  0  0  0
  2  3  1  0  0  0  0
  2  4  2  0  0  0  0
  3 30  1  0  0  0  0
  3 31  1  0  0  0  0
  3 32  1  0  0  0  0
  4  5  1  0  0  0  0
  4 33  1  0  0  0  0
  5  6  1  0  0  0  0
  5 34  1  0  0  0  0
  5 35  1  0  0  0  0
  6  7  1  0  0  0  0
  6 26  1  0  0  0  0
  7  8  1  0  0  0  0
  7  9  2  0  0  0  0
  8 36  1  0  0  0  0
  9 10  1  0  0  0  0
  9 21  1  0  0  0  0
 10 11  2  3  0  0  0
 11 12  1  0  0  0  0
 12 13  2  0  0  0  0
 12 14  1  0  0  0  0
 14 15  1  0  0  0  0
 14 20  2  0  0  0  0
 15 16  2  0  0  0  0
 15 37  1  0  0  0  0
 16 17  1  0  0  0  0
 16 38  1  0  0  0  0
 17 18  1  0  0  0  0
 17 19  2  0  0  0  0
 19 20  1  0  0  0  0
 19 39  1  0  0  0  0
 20 40  1  0  0  0  0
 21 22  1  0  0  0  0
 21 26  2  0  0  0  0
 22 23  2  0  0  0  0
 22 41  1  0  0  0  0
 23 24  1  0  0  0  0
 23 42  1  0  0  0  0
 24 25  2  0  0  0  0
 24 43  1  0  0  0  0
 25 26  1  0  0  0  0
 25 44  1  0  0  0  0
M  END
>  <Line_Number>
113


> <IC50>
177000

$$$$
