145986522.0
 OpenBabel09092522103D

 47 49  0  0  0  0  0  0  0  0999 V2000
    6.8040    0.0275    2.3156 C   0  0  0  0  0  0  0  0  0  0  0  0
    5.6305    0.2362    1.3965 C   0  0  0  0  0  0  0  0  0  0  0  0
    4.2579    0.1442    2.0026 C   0  0  0  0  0  0  0  0  0  0  0  0
    5.8356    0.4540    0.0813 C   0  0  0  0  0  0  0  0  0  0  0  0
    4.7668    0.6476   -0.9580 C   0  0  0  0  0  0  0  0  0  0  0  0
    5.1899    1.5642   -2.0159 N   0  0  0  0  0  0  0  0  0  0  0  0
    4.9948    2.9345   -2.0336 C   0  0  0  0  0  0  0  0  0  0  0  0
    4.4511    3.6178   -1.0239 O   0  0  0  0  0  0  0  0  0  0  0  0
    5.4340    3.3770   -3.2687 C   0  0  0  0  0  0  0  0  0  0  0  0
    5.3782    4.6770   -3.7999 N   0  0  0  0  0  0  0  0  0  0  0  0
    5.4631    5.5707   -2.9346 N   0  0  0  0  0  0  0  0  0  0  0  0
    5.2553    6.8262   -3.4637 C   0  0  0  0  0  0  0  0  0  0  0  0
    5.5350    7.1926   -4.6022 O   0  0  0  0  0  0  0  0  0  0  0  0
    4.6381    7.8085   -2.5153 C   0  0  0  0  0  0  0  0  0  0  0  0
    4.3262    9.0994   -2.9656 C   0  0  0  0  0  0  0  0  0  0  0  0
    3.7344   10.0227   -2.1025 C   0  0  0  0  0  0  0  0  0  0  0  0
    3.4607    9.6707   -0.7796 C   0  0  0  0  0  0  0  0  0  0  0  0
    3.7782    8.3908   -0.3028 C   0  0  0  0  0  0  0  0  0  0  0  0
    3.5173    7.9988    1.1311 C   0  0  0  0  0  0  0  0  0  0  0  0
    2.9819    9.0012    1.8818 F   0  0  0  0  0  0  0  0  0  0  0  0
    2.6558    6.9502    1.2390 F   0  0  0  0  0  0  0  0  0  0  0  0
    4.6537    7.6167    1.7774 F   0  0  0  0  0  0  0  0  0  0  0  0
    4.3599    7.4625   -1.1836 C   0  0  0  0  0  0  0  0  0  0  0  0
    5.9169    2.2705   -4.0143 C   0  0  0  0  0  0  0  0  0  0  0  0
    6.4588    2.1147   -5.3076 C   0  0  0  0  0  0  0  0  0  0  0  0
    6.8426    0.8446   -5.7489 C   0  0  0  0  0  0  0  0  0  0  0  0
    6.7010   -0.2643   -4.9213 C   0  0  0  0  0  0  0  0  0  0  0  0
    6.1663   -0.1371   -3.6364 C   0  0  0  0  0  0  0  0  0  0  0  0
    5.7726    1.1422   -3.2034 C   0  0  0  0  0  0  0  0  0  0  0  0
    6.4882   -0.1429    3.3498 H   0  0  0  0  0  0  0  0  0  0  0  0
    7.4580    0.9048    2.3121 H   0  0  0  0  0  0  0  0  0  0  0  0
    7.3818   -0.8488    2.0030 H   0  0  0  0  0  0  0  0  0  0  0  0
    4.2970   -0.0665    3.0757 H   0  0  0  0  0  0  0  0  0  0  0  0
    3.6859   -0.6640    1.5342 H   0  0  0  0  0  0  0  0  0  0  0  0
    3.7157    1.0868    1.8759 H   0  0  0  0  0  0  0  0  0  0  0  0
    6.8623    0.4759   -0.2878 H   0  0  0  0  0  0  0  0  0  0  0  0
    3.8345    1.0400   -0.5404 H   0  0  0  0  0  0  0  0  0  0  0  0
    4.5243   -0.3125   -1.4246 H   0  0  0  0  0  0  0  0  0  0  0  0
    4.3642    3.0520   -0.2396 H   0  0  0  0  0  0  0  0  0  0  0  0
    4.5387    9.3881   -3.9937 H   0  0  0  0  0  0  0  0  0  0  0  0
    3.4872   11.0193   -2.4623 H   0  0  0  0  0  0  0  0  0  0  0  0
    3.0000   10.4050   -0.1191 H   0  0  0  0  0  0  0  0  0  0  0  0
    4.5932    6.4629   -0.8136 H   0  0  0  0  0  0  0  0  0  0  0  0
    6.5740    2.9778   -5.9582 H   0  0  0  0  0  0  0  0  0  0  0  0
    7.2556    0.7252   -6.7469 H   0  0  0  0  0  0  0  0  0  0  0  0
    7.0056   -1.2454   -5.2786 H   0  0  0  0  0  0  0  0  0  0  0  0
    6.0624   -1.0140   -3.0038 H   0  0  0  0  0  0  0  0  0  0  0  0
  1  2  1  0  0  0  0
  1 30  1  0  0  0  0
  1 31  1  0  0  0  0
  1 32  1  0  0  0  0
  2  3  1  0  0  0  0
  2  4  2  0  0  0  0
  3 33  1  0  0  0  0
  3 34  1  0  0  0  0
  3 35  1  0  0  0  0
  4  5  1  0  0  0  0
  4 36  1  0  0  0  0
  5  6  1  0  0  0  0
  5 37  1  0  0  0  0
  5 38  1  0  0  0  0
  6  7  1  0  0  0  0
  6 29  1  0  0  0  0
  7  8  1  0  0  0  0
  7  9  2  0  0  0  0
  8 39  1  0  0  0  0
  9 10  1  0  0  0  0
  9 24  1  0  0  0  0
 10 11  2  3  0  0  0
 11 12  1  0  0  0  0
 12 13  2  0  0  0  0
 12 14  1  0  0  0  0
 14 15  1  0  0  0  0
 14 23  2  0  0  0  0
 15 16  2  0  0  0  0
 15 40  1  0  0  0  0
 16 17  1  0  0  0  0
 16 41  1  0  0  0  0
 17 18  2  0  0  0  0
 17 42  1  0  0  0  0
 18 19  1  0  0  0  0
 18 23  1  0  0  0  0
 19 20  1  0  0  0  0
 19 21  1  0  0  0  0
 19 22  1  0  0  0  0
 23 43  1  0  0  0  0
 24 25  1  0  0  0  0
 24 29  2  0  0  0  0
 25 26  2  0  0  0  0
 25 44  1  0  0  0  0
 26 27  1  0  0  0  0
 26 45  1  0  0  0  0
 27 28  2  0  0  0  0
 27 46  1  0  0  0  0
 28 29  1  0  0  0  0
 28 47  1  0  0  0  0
M  END
>  <Line_Number>
114


> <IC50>
86900

$$$$
