145993469.0
 OpenBabel09092522103D

 52 54  0  0  0  0  0  0  0  0999 V2000
    3.0335   -3.6321  -10.1538 C   0  0  0  0  0  0  0  0  0  0  0  0
    3.9362   -4.6248   -9.6801 O   0  0  0  0  0  0  0  0  0  0  0  0
    4.0500   -4.7631   -8.3254 C   0  0  0  0  0  0  0  0  0  0  0  0
    3.0601   -4.3259   -7.4353 C   0  0  0  0  0  0  0  0  0  0  0  0
    3.1762   -4.5625   -6.0689 C   0  0  0  0  0  0  0  0  0  0  0  0
    4.2775   -5.2601   -5.5686 C   0  0  0  0  0  0  0  0  0  0  0  0
    4.3167   -5.5409   -4.1148 C   0  0  0  0  0  0  0  0  0  0  0  0
    3.5985   -4.8742   -3.3738 O   0  0  0  0  0  0  0  0  0  0  0  0
    5.1120   -6.6041   -3.7370 N   0  0  0  0  0  0  0  0  0  0  0  0
    4.7533   -6.9918   -2.6129 N   0  0  0  0  0  0  0  0  0  0  0  0
    5.2941   -8.1925   -2.1631 C   0  0  0  0  0  0  0  0  0  0  0  0
    5.0240   -8.6179   -0.8855 C   0  0  0  0  0  0  0  0  0  0  0  0
    4.2315   -8.1039    0.0517 O   0  0  0  0  0  0  0  0  0  0  0  0
    5.7619   -9.7537   -0.6770 N   0  0  0  0  0  0  0  0  0  0  0  0
    6.0009  -10.3368    0.6365 C   0  0  0  0  0  0  0  0  0  0  0  0
    5.1332  -11.5193    0.9611 C   0  0  0  0  0  0  0  0  0  0  0  0
    5.2912  -12.2765    2.0671 C   0  0  0  0  0  0  0  0  0  0  0  0
    6.3516  -12.0228    3.1060 C   0  0  0  0  0  0  0  0  0  0  0  0
    4.3928  -13.4443    2.3688 C   0  0  0  0  0  0  0  0  0  0  0  0
    6.3288  -10.1731   -1.8702 C   0  0  0  0  0  0  0  0  0  0  0  0
    7.0690  -11.3245   -2.1747 C   0  0  0  0  0  0  0  0  0  0  0  0
    7.4626  -11.5220   -3.5041 C   0  0  0  0  0  0  0  0  0  0  0  0
    7.1596  -10.5839   -4.4850 C   0  0  0  0  0  0  0  0  0  0  0  0
    6.4639   -9.4146   -4.1652 C   0  0  0  0  0  0  0  0  0  0  0  0
    6.0306   -9.2008   -2.8380 C   0  0  0  0  0  0  0  0  0  0  0  0
    5.2752   -5.7003   -6.4415 C   0  0  0  0  0  0  0  0  0  0  0  0
    5.1763   -5.4411   -7.8147 C   0  0  0  0  0  0  0  0  0  0  0  0
    6.2273   -5.9506   -8.5353 O   0  0  0  0  0  0  0  0  0  0  0  0
    6.6010   -5.2324   -9.7059 C   0  0  0  0  0  0  0  0  0  0  0  0
    3.1313   -3.5847  -11.2419 H   0  0  0  0  0  0  0  0  0  0  0  0
    3.2889   -2.6475   -9.7476 H   0  0  0  0  0  0  0  0  0  0  0  0
    1.9946   -3.8961   -9.9317 H   0  0  0  0  0  0  0  0  0  0  0  0
    2.1602   -3.8251   -7.7755 H   0  0  0  0  0  0  0  0  0  0  0  0
    2.3837   -4.2313   -5.3996 H   0  0  0  0  0  0  0  0  0  0  0  0
    3.7261   -7.3913   -0.3899 H   0  0  0  0  0  0  0  0  0  0  0  0
    5.8426   -9.5432    1.3756 H   0  0  0  0  0  0  0  0  0  0  0  0
    7.0611  -10.6118    0.6595 H   0  0  0  0  0  0  0  0  0  0  0  0
    4.3299  -11.7466    0.2626 H   0  0  0  0  0  0  0  0  0  0  0  0
    6.9728  -11.1501    2.8864 H   0  0  0  0  0  0  0  0  0  0  0  0
    7.0179  -12.8877    3.1822 H   0  0  0  0  0  0  0  0  0  0  0  0
    5.8879  -11.8488    4.0822 H   0  0  0  0  0  0  0  0  0  0  0  0
    3.6332  -13.5995    1.5963 H   0  0  0  0  0  0  0  0  0  0  0  0
    3.8754  -13.2840    3.3207 H   0  0  0  0  0  0  0  0  0  0  0  0
    4.9841  -14.3625    2.4484 H   0  0  0  0  0  0  0  0  0  0  0  0
    7.3049  -12.0663   -1.4191 H   0  0  0  0  0  0  0  0  0  0  0  0
    8.0163  -12.4174   -3.7674 H   0  0  0  0  0  0  0  0  0  0  0  0
    7.4518  -10.7694   -5.5169 H   0  0  0  0  0  0  0  0  0  0  0  0
    6.2331   -8.6981   -4.9471 H   0  0  0  0  0  0  0  0  0  0  0  0
    6.1436   -6.2400   -6.0701 H   0  0  0  0  0  0  0  0  0  0  0  0
    7.6251   -5.5238   -9.9599 H   0  0  0  0  0  0  0  0  0  0  0  0
    6.5977   -4.1489   -9.5425 H   0  0  0  0  0  0  0  0  0  0  0  0
    5.9701   -5.5143  -10.5533 H   0  0  0  0  0  0  0  0  0  0  0  0
  1  2  1  0  0  0  0
  1 30  1  0  0  0  0
  1 31  1  0  0  0  0
  1 32  1  0  0  0  0
  2  3  1  0  0  0  0
  3  4  1  0  0  0  0
  3 27  2  0  0  0  0
  4  5  2  0  0  0  0
  4 33  1  0  0  0  0
  5  6  1  0  0  0  0
  5 34  1  0  0  0  0
  6  7  1  0  0  0  0
  6 26  2  0  0  0  0
  7  8  2  0  0  0  0
  7  9  1  0  0  0  0
  9 10  2  3  0  0  0
 10 11  1  0  0  0  0
 11 12  2  0  0  0  0
 11 25  1  0  0  0  0
 12 13  1  0  0  0  0
 12 14  1  0  0  0  0
 13 35  1  0  0  0  0
 14 15  1  0  0  0  0
 14 20  1  0  0  0  0
 15 16  1  0  0  0  0
 15 36  1  0  0  0  0
 15 37  1  0  0  0  0
 16 17  2  0  0  0  0
 16 38  1  0  0  0  0
 17 18  1  0  0  0  0
 17 19  1  0  0  0  0
 18 39  1  0  0  0  0
 18 40  1  0  0  0  0
 18 41  1  0  0  0  0
 19 42  1  0  0  0  0
 19 43  1  0  0  0  0
 19 44  1  0  0  0  0
 20 21  1  0  0  0  0
 20 25  2  0  0  0  0
 21 22  2  0  0  0  0
 21 45  1  0  0  0  0
 22 23  1  0  0  0  0
 22 46  1  0  0  0  0
 23 24  2  0  0  0  0
 23 47  1  0  0  0  0
 24 25  1  0  0  0  0
 24 48  1  0  0  0  0
 26 27  1  0  0  0  0
 26 49  1  0  0  0  0
 27 28  1  0  0  0  0
 28 29  1  0  0  0  0
 29 50  1  0  0  0  0
 29 51  1  0  0  0  0
 29 52  1  0  0  0  0
M  END
>  <Line_Number>
115


> <IC50>
595

$$$$
