145987122.0
 OpenBabel09092522103D

 56 58  0  0  0  0  0  0  0  0999 V2000
    1.7341    0.5833   -1.9179 C   0  0  0  0  0  0  0  0  0  0  0  0
    2.7548    0.1847   -0.8851 C   0  0  0  0  0  0  0  0  0  0  0  0
    2.6197    0.7996    0.4801 C   0  0  0  0  0  0  0  0  0  0  0  0
    3.7439   -0.6777   -1.1991 C   0  0  0  0  0  0  0  0  0  0  0  0
    4.7891   -1.1911   -0.2437 C   0  0  0  0  0  0  0  0  0  0  0  0
    5.2909   -2.5089   -0.6334 N   0  0  0  0  0  0  0  0  0  0  0  0
    6.3745   -2.7539   -1.4590 C   0  0  0  0  0  0  0  0  0  0  0  0
    7.1379   -1.8028   -1.9995 O   0  0  0  0  0  0  0  0  0  0  0  0
    6.4584   -4.1266   -1.5993 C   0  0  0  0  0  0  0  0  0  0  0  0
    7.3583   -4.8580   -2.3902 N   0  0  0  0  0  0  0  0  0  0  0  0
    8.4658   -4.2987   -2.5134 N   0  0  0  0  0  0  0  0  0  0  0  0
    9.3081   -4.9671   -3.3725 C   0  0  0  0  0  0  0  0  0  0  0  0
    9.0557   -5.9990   -3.9957 O   0  0  0  0  0  0  0  0  0  0  0  0
   10.6569   -4.3368   -3.5366 C   0  0  0  0  0  0  0  0  0  0  0  0
   11.5701   -4.9123   -4.4235 C   0  0  0  0  0  0  0  0  0  0  0  0
   12.8632   -4.3922   -4.5521 C   0  0  0  0  0  0  0  0  0  0  0  0
   13.2915   -3.2906   -3.7915 C   0  0  0  0  0  0  0  0  0  0  0  0
   14.7405   -2.7692   -3.8435 C   0  0  0  0  0  0  0  0  0  0  0  0
   15.6507   -3.5922   -4.7841 C   0  0  0  0  0  0  0  0  0  0  0  0
   14.7729   -1.3064   -4.3307 C   0  0  0  0  0  0  0  0  0  0  0  0
   15.3700   -2.8381   -2.4339 C   0  0  0  0  0  0  0  0  0  0  0  0
   12.3449   -2.6928   -2.9373 C   0  0  0  0  0  0  0  0  0  0  0  0
   11.0458   -3.2061   -2.8086 C   0  0  0  0  0  0  0  0  0  0  0  0
    5.4327   -4.7388   -0.8372 C   0  0  0  0  0  0  0  0  0  0  0  0
    5.0408   -6.0750   -0.6083 C   0  0  0  0  0  0  0  0  0  0  0  0
    3.9599   -6.3443    0.2363 C   0  0  0  0  0  0  0  0  0  0  0  0
    3.2688   -5.3041    0.8485 C   0  0  0  0  0  0  0  0  0  0  0  0
    3.6302   -3.9706    0.6292 C   0  0  0  0  0  0  0  0  0  0  0  0
    4.7194   -3.7066   -0.2203 C   0  0  0  0  0  0  0  0  0  0  0  0
    1.0825    1.3866   -1.5588 H   0  0  0  0  0  0  0  0  0  0  0  0
    1.0952   -0.2690   -2.1717 H   0  0  0  0  0  0  0  0  0  0  0  0
    2.2210    0.9469   -2.8289 H   0  0  0  0  0  0  0  0  0  0  0  0
    1.8098    1.5345    0.5197 H   0  0  0  0  0  0  0  0  0  0  0  0
    3.5417    1.3225    0.7562 H   0  0  0  0  0  0  0  0  0  0  0  0
    2.4036    0.0323    1.2298 H   0  0  0  0  0  0  0  0  0  0  0  0
    3.7865   -1.0704   -2.2155 H   0  0  0  0  0  0  0  0  0  0  0  0
    4.4126   -1.2741    0.7792 H   0  0  0  0  0  0  0  0  0  0  0  0
    5.6406   -0.5055   -0.2115 H   0  0  0  0  0  0  0  0  0  0  0  0
    6.8401   -0.9188   -1.7408 H   0  0  0  0  0  0  0  0  0  0  0  0
   11.2883   -5.7821   -5.0143 H   0  0  0  0  0  0  0  0  0  0  0  0
   13.5257   -4.8926   -5.2531 H   0  0  0  0  0  0  0  0  0  0  0  0
   15.3030   -3.5443   -5.8228 H   0  0  0  0  0  0  0  0  0  0  0  0
   15.6875   -4.6464   -4.4847 H   0  0  0  0  0  0  0  0  0  0  0  0
   16.6807   -3.2182   -4.7705 H   0  0  0  0  0  0  0  0  0  0  0  0
   14.3479   -1.2126   -5.3365 H   0  0  0  0  0  0  0  0  0  0  0  0
   15.8027   -0.9298   -4.3688 H   0  0  0  0  0  0  0  0  0  0  0  0
   14.2115   -0.6371   -3.6699 H   0  0  0  0  0  0  0  0  0  0  0  0
   15.3477   -3.8608   -2.0395 H   0  0  0  0  0  0  0  0  0  0  0  0
   14.8500   -2.1951   -1.7154 H   0  0  0  0  0  0  0  0  0  0  0  0
   16.4170   -2.5123   -2.4540 H   0  0  0  0  0  0  0  0  0  0  0  0
   12.6117   -1.8233   -2.3393 H   0  0  0  0  0  0  0  0  0  0  0  0
   10.3567   -2.7188   -2.1221 H   0  0  0  0  0  0  0  0  0  0  0  0
    5.5799   -6.8902   -1.0841 H   0  0  0  0  0  0  0  0  0  0  0  0
    3.6601   -7.3743    0.4130 H   0  0  0  0  0  0  0  0  0  0  0  0
    2.4312   -5.5302    1.5048 H   0  0  0  0  0  0  0  0  0  0  0  0
    3.0725   -3.1722    1.1081 H   0  0  0  0  0  0  0  0  0  0  0  0
  1  2  1  0  0  0  0
  1 30  1  0  0  0  0
  1 31  1  0  0  0  0
  1 32  1  0  0  0  0
  2  3  1  0  0  0  0
  2  4  2  0  0  0  0
  3 33  1  0  0  0  0
  3 34  1  0  0  0  0
  3 35  1  0  0  0  0
  4  5  1  0  0  0  0
  4 36  1  0  0  0  0
  5  6  1  0  0  0  0
  5 37  1  0  0  0  0
  5 38  1  0  0  0  0
  6  7  1  0  0  0  0
  6 29  1  0  0  0  0
  7  8  1  0  0  0  0
  7  9  2  0  0  0  0
  8 39  1  0  0  0  0
  9 10  1  0  0  0  0
  9 24  1  0  0  0  0
 10 11  2  3  0  0  0
 11 12  1  0  0  0  0
 12 13  2  0  0  0  0
 12 14  1  0  0  0  0
 14 15  1  0  0  0  0
 14 23  2  0  0  0  0
 15 16  2  0  0  0  0
 15 40  1  0  0  0  0
 16 17  1  0  0  0  0
 16 41  1  0  0  0  0
 17 18  1  0  0  0  0
 17 22  2  0  0  0  0
 18 19  1  0  0  0  0
 18 20  1  0  0  0  0
 18 21  1  0  0  0  0
 19 42  1  0  0  0  0
 19 43  1  0  0  0  0
 19 44  1  0  0  0  0
 20 45  1  0  0  0  0
 20 46  1  0  0  0  0
 20 47  1  0  0  0  0
 21 48  1  0  0  0  0
 21 49  1  0  0  0  0
 21 50  1  0  0  0  0
 22 23  1  0  0  0  0
 22 51  1  0  0  0  0
 23 52  1  0  0  0  0
 24 25  1  0  0  0  0
 24 29  2  0  0  0  0
 25 26  2  0  0  0  0
 25 53  1  0  0  0  0
 26 27  1  0  0  0  0
 26 54  1  0  0  0  0
 27 28  2  0  0  0  0
 27 55  1  0  0  0  0
 28 29  1  0  0  0  0
 28 56  1  0  0  0  0
M  END
>  <Line_Number>
116


> <IC50>
25150

$$$$
