145993563.0
 OpenBabel09092522103D

 44 46  0  0  0  0  0  0  0  0999 V2000
    6.5445   -0.5063    2.4795 C   0  0  0  0  0  0  0  0  0  0  0  0
    5.4450   -0.0702    1.5480 C   0  0  0  0  0  0  0  0  0  0  0  0
    4.0361   -0.4245    1.9335 C   0  0  0  0  0  0  0  0  0  0  0  0
    5.7499    0.5689    0.4008 C   0  0  0  0  0  0  0  0  0  0  0  0
    4.7700    1.0146   -0.6468 C   0  0  0  0  0  0  0  0  0  0  0  0
    5.1890    2.2538   -1.2997 N   0  0  0  0  0  0  0  0  0  0  0  0
    4.8391    3.5347   -0.9145 C   0  0  0  0  0  0  0  0  0  0  0  0
    4.1410    3.8086    0.1898 O   0  0  0  0  0  0  0  0  0  0  0  0
    5.3215    4.3866   -1.8925 C   0  0  0  0  0  0  0  0  0  0  0  0
    5.1490    5.7796   -1.9923 N   0  0  0  0  0  0  0  0  0  0  0  0
    5.0439    6.3406   -0.8833 N   0  0  0  0  0  0  0  0  0  0  0  0
    4.7406    7.6820   -0.9755 C   0  0  0  0  0  0  0  0  0  0  0  0
    4.5900    8.3358   -2.0057 O   0  0  0  0  0  0  0  0  0  0  0  0
    4.5883    8.3763    0.3448 C   0  0  0  0  0  0  0  0  0  0  0  0
    4.2307    9.7332    0.3834 C   0  0  0  0  0  0  0  0  0  0  0  0
    4.0995   10.3975    1.6100 C   0  0  0  0  0  0  0  0  0  0  0  0
    4.3243    9.7052    2.7991 C   0  0  0  0  0  0  0  0  0  0  0  0
    4.1758   10.5224    4.3064 Cl  0  0  0  0  0  0  0  0  0  0  0  0
    4.6714    8.3562    2.7763 C   0  0  0  0  0  0  0  0  0  0  0  0
    4.8002    7.6921    1.5517 C   0  0  0  0  0  0  0  0  0  0  0  0
    6.0100    3.6219   -2.8729 C   0  0  0  0  0  0  0  0  0  0  0  0
    6.6887    3.9343   -4.0712 C   0  0  0  0  0  0  0  0  0  0  0  0
    7.2801    2.9078   -4.8166 C   0  0  0  0  0  0  0  0  0  0  0  0
    7.2058    1.5896   -4.3920 C   0  0  0  0  0  0  0  0  0  0  0  0
    6.5322    1.2533   -3.2144 C   0  0  0  0  0  0  0  0  0  0  0  0
    5.9362    2.2847   -2.4711 C   0  0  0  0  0  0  0  0  0  0  0  0
    6.1519   -0.9980    3.3747 H   0  0  0  0  0  0  0  0  0  0  0  0
    7.1348    0.3546    2.8100 H   0  0  0  0  0  0  0  0  0  0  0  0
    7.2075   -1.2202    1.9794 H   0  0  0  0  0  0  0  0  0  0  0  0
    3.9928   -0.9488    2.8927 H   0  0  0  0  0  0  0  0  0  0  0  0
    3.5862   -1.0813    1.1815 H   0  0  0  0  0  0  0  0  0  0  0  0
    3.4259    0.4794    2.0308 H   0  0  0  0  0  0  0  0  0  0  0  0
    6.8000    0.7667    0.1797 H   0  0  0  0  0  0  0  0  0  0  0  0
    3.7661    1.1815   -0.2463 H   0  0  0  0  0  0  0  0  0  0  0  0
    4.6759    0.2455   -1.4205 H   0  0  0  0  0  0  0  0  0  0  0  0
    4.0314    3.0122    0.7302 H   0  0  0  0  0  0  0  0  0  0  0  0
    4.0556   10.2817   -0.5412 H   0  0  0  0  0  0  0  0  0  0  0  0
    3.8247   11.4495    1.6262 H   0  0  0  0  0  0  0  0  0  0  0  0
    4.8432    7.8162    3.7036 H   0  0  0  0  0  0  0  0  0  0  0  0
    5.0711    6.6349    1.5604 H   0  0  0  0  0  0  0  0  0  0  0  0
    6.7528    4.9631   -4.4081 H   0  0  0  0  0  0  0  0  0  0  0  0
    7.8034    3.1526   -5.7391 H   0  0  0  0  0  0  0  0  0  0  0  0
    7.6731    0.8033   -4.9833 H   0  0  0  0  0  0  0  0  0  0  0  0
    6.4797    0.2153   -2.8973 H   0  0  0  0  0  0  0  0  0  0  0  0
  1  2  1  0  0  0  0
  1 27  1  0  0  0  0
  1 28  1  0  0  0  0
  1 29  1  0  0  0  0
  2  3  1  0  0  0  0
  2  4  2  0  0  0  0
  3 30  1  0  0  0  0
  3 31  1  0  0  0  0
  3 32  1  0  0  0  0
  4  5  1  0  0  0  0
  4 33  1  0  0  0  0
  5  6  1  0  0  0  0
  5 34  1  0  0  0  0
  5 35  1  0  0  0  0
  6  7  1  0  0  0  0
  6 26  1  0  0  0  0
  7  8  1  0  0  0  0
  7  9  2  0  0  0  0
  8 36  1  0  0  0  0
  9 10  1  0  0  0  0
  9 21  1  0  0  0  0
 10 11  2  3  0  0  0
 11 12  1  0  0  0  0
 12 13  2  0  0  0  0
 12 14  1  0  0  0  0
 14 15  1  0  0  0  0
 14 20  2  0  0  0  0
 15 16  2  0  0  0  0
 15 37  1  0  0  0  0
 16 17  1  0  0  0  0
 16 38  1  0  0  0  0
 17 18  1  0  0  0  0
 17 19  2  0  0  0  0
 19 20  1  0  0  0  0
 19 39  1  0  0  0  0
 20 40  1  0  0  0  0
 21 22  1  0  0  0  0
 21 26  2  0  0  0  0
 22 23  2  0  0  0  0
 22 41  1  0  0  0  0
 23 24  1  0  0  0  0
 23 42  1  0  0  0  0
 24 25  2  0  0  0  0
 24 43  1  0  0  0  0
 25 26  1  0  0  0  0
 25 44  1  0  0  0  0
M  END
>  <Line_Number>
117


> <IC50>
164000

$$$$
