49844555.0
 OpenBabel09092522103D

 45 46  0  0  0  0  0  0  0  0999 V2000
    0.8320   -0.6814    0.5563 C   0  0  0  0  0  0  0  0  0  0  0  0
    2.3413   -0.7906    0.6304 C   0  0  0  0  0  0  0  0  0  0  0  0
    2.8561   -1.0659   -0.6737 O   0  0  0  0  0  0  0  0  0  0  0  0
    4.2100   -1.2693   -0.7707 C   0  0  0  0  0  0  0  0  0  0  0  0
    5.0766   -1.0977    0.3156 C   0  0  0  0  0  0  0  0  0  0  0  0
    6.4367   -1.3770    0.2066 C   0  0  0  0  0  0  0  0  0  0  0  0
    6.9726   -1.8716   -0.9819 C   0  0  0  0  0  0  0  0  0  0  0  0
    8.4465   -2.1926   -1.1122 C   0  0  0  0  0  0  0  0  0  0  0  0
    9.1058   -2.6849    0.1868 C   0  0  0  0  0  0  0  0  0  0  0  0
   10.5711   -2.9785    0.0042 C   0  0  0  0  0  0  0  0  0  0  0  0
   10.9973   -4.2810   -0.3033 C   0  0  0  0  0  0  0  0  0  0  0  0
   12.3537   -4.5647   -0.4975 C   0  0  0  0  0  0  0  0  0  0  0  0
   13.2853   -3.5369   -0.3998 C   0  0  0  0  0  0  0  0  0  0  0  0
   14.6219   -3.7525   -0.5866 O   0  0  0  0  0  0  0  0  0  0  0  0
   12.8733   -2.2450   -0.1018 C   0  0  0  0  0  0  0  0  0  0  0  0
   13.7823   -1.2234   -0.0178 O   0  0  0  0  0  0  0  0  0  0  0  0
   11.5289   -1.9674    0.1125 C   0  0  0  0  0  0  0  0  0  0  0  0
   11.1562   -0.6918    0.4359 O   0  0  0  0  0  0  0  0  0  0  0  0
    6.1175   -1.9960   -2.0861 C   0  0  0  0  0  0  0  0  0  0  0  0
    4.7526   -1.6730   -2.0001 C   0  0  0  0  0  0  0  0  0  0  0  0
    4.0743   -1.8281   -3.1861 O   0  0  0  0  0  0  0  0  0  0  0  0
    2.9901   -0.9258   -3.4123 C   0  0  0  0  0  0  0  0  0  0  0  0
    2.8526   -0.7058   -4.9097 C   0  0  0  0  0  0  0  0  0  0  0  0
    0.4171   -0.4668    1.5458 H   0  0  0  0  0  0  0  0  0  0  0  0
    0.3950   -1.6127    0.1834 H   0  0  0  0  0  0  0  0  0  0  0  0
    0.5366    0.1163   -0.1320 H   0  0  0  0  0  0  0  0  0  0  0  0
    2.6004   -1.6023    1.3211 H   0  0  0  0  0  0  0  0  0  0  0  0
    2.7405    0.1623    0.9973 H   0  0  0  0  0  0  0  0  0  0  0  0
    4.7319   -0.7462    1.2815 H   0  0  0  0  0  0  0  0  0  0  0  0
    7.0566   -1.2037    1.0809 H   0  0  0  0  0  0  0  0  0  0  0  0
    8.9578   -1.2948   -1.4818 H   0  0  0  0  0  0  0  0  0  0  0  0
    8.5737   -2.9676   -1.8805 H   0  0  0  0  0  0  0  0  0  0  0  0
    8.5896   -3.5816    0.5545 H   0  0  0  0  0  0  0  0  0  0  0  0
    9.0107   -1.9455    0.9900 H   0  0  0  0  0  0  0  0  0  0  0  0
   10.2672   -5.0840   -0.3896 H   0  0  0  0  0  0  0  0  0  0  0  0
   12.6532   -5.5815   -0.7283 H   0  0  0  0  0  0  0  0  0  0  0  0
   14.7575   -4.7087   -0.7079 H   0  0  0  0  0  0  0  0  0  0  0  0
   14.6307   -1.6425   -0.2695 H   0  0  0  0  0  0  0  0  0  0  0  0
   11.9991   -0.1977    0.4943 H   0  0  0  0  0  0  0  0  0  0  0  0
    6.5136   -2.3378   -3.0426 H   0  0  0  0  0  0  0  0  0  0  0  0
    3.1603    0.0492   -2.9404 H   0  0  0  0  0  0  0  0  0  0  0  0
    2.0667   -1.3749   -3.0319 H   0  0  0  0  0  0  0  0  0  0  0  0
    3.7563   -0.2364   -5.3130 H   0  0  0  0  0  0  0  0  0  0  0  0
    1.9972   -0.0599   -5.1289 H   0  0  0  0  0  0  0  0  0  0  0  0
    2.7229   -1.6565   -5.4366 H   0  0  0  0  0  0  0  0  0  0  0  0
  1  2  1  0  0  0  0
  1 24  1  0  0  0  0
  1 25  1  0  0  0  0
  1 26  1  0  0  0  0
  2  3  1  0  0  0  0
  2 27  1  0  0  0  0
  2 28  1  0  0  0  0
  3  4  1  0  0  0  0
  4  5  1  0  0  0  0
  4 20  2  0  0  0  0
  5  6  2  0  0  0  0
  5 29  1  0  0  0  0
  6  7  1  0  0  0  0
  6 30  1  0  0  0  0
  7  8  1  0  0  0  0
  7 19  2  0  0  0  0
  8  9  1  0  0  0  0
  8 31  1  0  0  0  0
  8 32  1  0  0  0  0
  9 10  1  0  0  0  0
  9 33  1  0  0  0  0
  9 34  1  0  0  0  0
 10 11  1  0  0  0  0
 10 17  2  0  0  0  0
 11 12  2  0  0  0  0
 11 35  1  0  0  0  0
 12 13  1  0  0  0  0
 12 36  1  0  0  0  0
 13 14  1  0  0  0  0
 13 15  2  0  0  0  0
 14 37  1  0  0  0  0
 15 16  1  0  0  0  0
 15 17  1  0  0  0  0
 16 38  1  0  0  0  0
 17 18  1  0  0  0  0
 18 39  1  0  0  0  0
 19 20  1  0  0  0  0
 19 40  1  0  0  0  0
 20 21  1  0  0  0  0
 21 22  1  0  0  0  0
 22 23  1  0  0  0  0
 22 41  1  0  0  0  0
 22 42  1  0  0  0  0
 23 43  1  0  0  0  0
 23 44  1  0  0  0  0
 23 45  1  0  0  0  0
M  END
>  <Line_Number>
11


> <IC50>
69000

$$$$
