168277096.0
 OpenBabel09092522103D

 37 38  0  0  0  0  0  0  0  0999 V2000
    2.1987   -1.0825    2.0043 O   0  0  0  0  0  0  0  0  0  0  0  0
    2.7357   -0.6337    0.9918 C   0  0  0  0  0  0  0  0  0  0  0  0
    2.8758   -1.4125   -0.3075 C   0  0  0  0  0  0  0  0  0  0  0  0
    1.9073   -2.5358   -0.4377 N   0  0  0  0  0  0  0  0  0  0  0  0
    0.5083   -2.1813   -0.5323 C   0  0  0  0  0  0  0  0  0  0  0  0
    0.0285   -1.2435   -1.4546 C   0  0  0  0  0  0  0  0  0  0  0  0
   -1.3480   -0.9788   -1.5376 C   0  0  0  0  0  0  0  0  0  0  0  0
   -2.2517   -1.6855   -0.7418 C   0  0  0  0  0  0  0  0  0  0  0  0
   -1.7686   -2.6500    0.1486 C   0  0  0  0  0  0  0  0  0  0  0  0
   -2.7040   -3.4491    0.9476 N   0  3  0  0  0  0  0  0  0  0  0  0
   -3.9158   -3.2845    0.7460 O   0  0  0  0  0  0  0  0  0  0  0  0
   -2.2330   -4.2421    1.7755 O   0  5  0  0  0  0  0  0  0  0  0  0
   -0.3942   -2.8796    0.2682 C   0  0  0  0  0  0  0  0  0  0  0  0
    2.4112   -3.7747   -1.5106 S   0  0  0  0  0  0  0  0  0  0  0  0
    1.3413   -4.7156   -1.7545 O   0  0  0  0  0  0  0  0  0  0  0  0
    3.0770   -3.1147   -2.6193 O   0  0  0  0  0  0  0  0  0  0  0  0
    3.6610   -4.6369   -0.5783 C   0  0  0  0  0  0  0  0  0  0  0  0
    4.9726   -4.6625   -1.0803 C   0  0  0  0  0  0  0  0  0  0  0  0
    5.9849   -5.2823   -0.3467 C   0  0  0  0  0  0  0  0  0  0  0  0
    7.5829   -5.3501   -0.9770 Cl  0  0  0  0  0  0  0  0  0  0  0  0
    5.7129   -5.8548    0.8920 C   0  0  0  0  0  0  0  0  0  0  0  0
    4.4039   -5.8659    1.3696 C   0  0  0  0  0  0  0  0  0  0  0  0
    3.3675   -5.2892    0.6238 C   0  0  0  0  0  0  0  0  0  0  0  0
    1.7880   -5.5149    1.2608 Cl  0  0  0  0  0  0  0  0  0  0  0  0
    3.3433    0.5970    1.0325 N   0  0  0  0  0  0  0  0  0  0  0  0
    3.6418    1.2364   -0.1856 O   0  0  0  0  0  0  0  0  0  0  0  0
    3.9013   -1.7990   -0.3049 H   0  0  0  0  0  0  0  0  0  0  0  0
    2.7747   -0.7426   -1.1668 H   0  0  0  0  0  0  0  0  0  0  0  0
    0.6983   -0.7088   -2.1193 H   0  0  0  0  0  0  0  0  0  0  0  0
   -1.7172   -0.2327   -2.2384 H   0  0  0  0  0  0  0  0  0  0  0  0
   -3.3178   -1.4840   -0.8309 H   0  0  0  0  0  0  0  0  0  0  0  0
   -0.0276   -3.6072    0.9806 H   0  0  0  0  0  0  0  0  0  0  0  0
    5.2085   -4.2186   -2.0452 H   0  0  0  0  0  0  0  0  0  0  0  0
    6.5030   -6.3166    1.4795 H   0  0  0  0  0  0  0  0  0  0  0  0
    4.1897   -6.3468    2.3234 H   0  0  0  0  0  0  0  0  0  0  0  0
    3.0771    1.1954    1.8116 H   0  0  0  0  0  0  0  0  0  0  0  0
    4.6121    1.1389   -0.2462 H   0  0  0  0  0  0  0  0  0  0  0  0
  1  2  2  0  0  0  0
  2  3  1  0  0  0  0
  2 25  1  0  0  0  0
  3  4  1  0  0  0  0
  3 27  1  0  0  0  0
  3 28  1  0  0  0  0
  4  5  1  0  0  0  0
  4 14  1  0  0  0  0
  5  6  1  0  0  0  0
  5 13  2  0  0  0  0
  6  7  2  0  0  0  0
  6 29  1  0  0  0  0
  7  8  1  0  0  0  0
  7 30  1  0  0  0  0
  8  9  2  0  0  0  0
  8 31  1  0  0  0  0
  9 10  1  0  0  0  0
  9 13  1  0  0  0  0
 10 11  2  0  0  0  0
 10 12  1  0  0  0  0
 13 32  1  0  0  0  0
 14 15  2  0  0  0  0
 14 16  2  0  0  0  0
 14 17  1  0  0  0  0
 17 18  1  0  0  0  0
 17 23  2  0  0  0  0
 18 19  2  0  0  0  0
 18 33  1  0  0  0  0
 19 20  1  0  0  0  0
 19 21  1  0  0  0  0
 21 22  2  0  0  0  0
 21 34  1  0  0  0  0
 22 23  1  0  0  0  0
 22 35  1  0  0  0  0
 23 24  1  0  0  0  0
 25 26  1  0  0  0  0
 25 36  1  0  0  0  0
 26 37  1  0  0  0  0
M  CHG  2  10   1  12  -1
M  END
>  <Line_Number>
122


> <IC50>
27500

$$$$
