168280507.0
 OpenBabel09092522103D

 37 38  0  0  0  0  0  0  0  0999 V2000
    2.4713   -0.0164    1.0888 O   0  0  0  0  0  0  0  0  0  0  0  0
    2.4568   -0.4407   -0.0658 C   0  0  0  0  0  0  0  0  0  0  0  0
    2.9898    0.3704   -1.2345 C   0  0  0  0  0  0  0  0  0  0  0  0
    2.0195    0.5743   -2.3407 N   0  0  0  0  0  0  0  0  0  0  0  0
    0.6525    0.8708   -2.0089 C   0  0  0  0  0  0  0  0  0  0  0  0
   -0.3652    0.1307   -2.6194 C   0  0  0  0  0  0  0  0  0  0  0  0
   -1.7036    0.3706   -2.2970 C   0  0  0  0  0  0  0  0  0  0  0  0
   -2.0320    1.3626   -1.3724 C   0  0  0  0  0  0  0  0  0  0  0  0
   -1.0097    2.1182   -0.7832 C   0  0  0  0  0  0  0  0  0  0  0  0
   -1.3410    3.1580    0.1972 N   0  3  0  0  0  0  0  0  0  0  0  0
   -2.5272    3.2773    0.5320 O   0  0  0  0  0  0  0  0  0  0  0  0
   -0.4130    3.8593    0.6243 O   0  5  0  0  0  0  0  0  0  0  0  0
    0.3330    1.8869   -1.1079 C   0  0  0  0  0  0  0  0  0  0  0  0
    2.6563    1.3539   -3.7266 S   0  0  0  0  0  0  0  0  0  0  0  0
    4.0607    1.0161   -3.8189 O   0  0  0  0  0  0  0  0  0  0  0  0
    1.7632    1.0898   -4.8388 O   0  0  0  0  0  0  0  0  0  0  0  0
    2.5596    3.1130   -3.3935 C   0  0  0  0  0  0  0  0  0  0  0  0
    3.6480    3.7791   -2.8099 C   0  0  0  0  0  0  0  0  0  0  0  0
    3.6271    5.1733   -2.7101 C   0  0  0  0  0  0  0  0  0  0  0  0
    2.5345    5.8878   -3.1972 C   0  0  0  0  0  0  0  0  0  0  0  0
    2.5385    7.2260   -3.1334 F   0  0  0  0  0  0  0  0  0  0  0  0
    1.4526    5.2370   -3.7807 C   0  0  0  0  0  0  0  0  0  0  0  0
    1.4672    3.8456   -3.8865 C   0  0  0  0  0  0  0  0  0  0  0  0
    2.0257   -1.7054   -0.3986 N   0  0  0  0  0  0  0  0  0  0  0  0
    1.4246   -2.4599    0.6331 O   0  0  0  0  0  0  0  0  0  0  0  0
    3.8506   -0.1943   -1.6133 H   0  0  0  0  0  0  0  0  0  0  0  0
    3.3487    1.3327   -0.8578 H   0  0  0  0  0  0  0  0  0  0  0  0
   -0.1236   -0.6504   -3.3384 H   0  0  0  0  0  0  0  0  0  0  0  0
   -2.4898   -0.2232   -2.7602 H   0  0  0  0  0  0  0  0  0  0  0  0
   -3.0778    1.5322   -1.1223 H   0  0  0  0  0  0  0  0  0  0  0  0
    1.1195    2.4798   -0.6480 H   0  0  0  0  0  0  0  0  0  0  0  0
    4.5228    3.2328   -2.4693 H   0  0  0  0  0  0  0  0  0  0  0  0
    4.4624    5.7132   -2.2767 H   0  0  0  0  0  0  0  0  0  0  0  0
    0.6259    5.8180   -4.1751 H   0  0  0  0  0  0  0  0  0  0  0  0
    0.6404    3.3401   -4.3854 H   0  0  0  0  0  0  0  0  0  0  0  0
    1.7471   -1.9372   -1.3477 H   0  0  0  0  0  0  0  0  0  0  0  0
    2.0844   -2.3999    1.3544 H   0  0  0  0  0  0  0  0  0  0  0  0
  1  2  2  0  0  0  0
  2  3  1  0  0  0  0
  2 24  1  0  0  0  0
  3  4  1  0  0  0  0
  3 26  1  0  0  0  0
  3 27  1  0  0  0  0
  4  5  1  0  0  0  0
  4 14  1  0  0  0  0
  5  6  1  0  0  0  0
  5 13  2  0  0  0  0
  6  7  2  0  0  0  0
  6 28  1  0  0  0  0
  7  8  1  0  0  0  0
  7 29  1  0  0  0  0
  8  9  2  0  0  0  0
  8 30  1  0  0  0  0
  9 10  1  0  0  0  0
  9 13  1  0  0  0  0
 10 11  2  0  0  0  0
 10 12  1  0  0  0  0
 13 31  1  0  0  0  0
 14 15  2  0  0  0  0
 14 16  2  0  0  0  0
 14 17  1  0  0  0  0
 17 18  1  0  0  0  0
 17 23  2  0  0  0  0
 18 19  2  0  0  0  0
 18 32  1  0  0  0  0
 19 20  1  0  0  0  0
 19 33  1  0  0  0  0
 20 21  1  0  0  0  0
 20 22  2  0  0  0  0
 22 23  1  0  0  0  0
 22 34  1  0  0  0  0
 23 35  1  0  0  0  0
 24 25  1  0  0  0  0
 24 36  1  0  0  0  0
 25 37  1  0  0  0  0
M  CHG  2  10   1  12  -1
M  END
>  <Line_Number>
123


> <IC50>
3330

$$$$
