168295046.0
 OpenBabel09092522103D

 37 38  0  0  0  0  0  0  0  0999 V2000
    2.3755   -0.4660    0.8717 O   0  0  0  0  0  0  0  0  0  0  0  0
    2.3675   -0.1829   -0.3252 C   0  0  0  0  0  0  0  0  0  0  0  0
    2.8971    1.1443   -0.8482 C   0  0  0  0  0  0  0  0  0  0  0  0
    1.9138    1.9336   -1.6342 N   0  0  0  0  0  0  0  0  0  0  0  0
    0.5537    1.9759   -1.1746 C   0  0  0  0  0  0  0  0  0  0  0  0
   -0.4724    1.6351   -2.0621 C   0  0  0  0  0  0  0  0  0  0  0  0
   -1.7965    1.5703   -1.6165 C   0  0  0  0  0  0  0  0  0  0  0  0
   -2.0974    1.8495   -0.2829 C   0  0  0  0  0  0  0  0  0  0  0  0
   -1.0676    2.2157    0.5927 C   0  0  0  0  0  0  0  0  0  0  0  0
   -1.3631    2.4665    2.0072 N   0  3  0  0  0  0  0  0  0  0  0  0
   -2.5108    2.2306    2.4068 O   0  0  0  0  0  0  0  0  0  0  0  0
   -0.4432    2.8994    2.7163 O   0  5  0  0  0  0  0  0  0  0  0  0
    0.2562    2.3081    0.1465 C   0  0  0  0  0  0  0  0  0  0  0  0
    2.5249    3.3324   -2.3951 S   0  0  0  0  0  0  0  0  0  0  0  0
    3.9267    3.1005   -2.6806 O   0  0  0  0  0  0  0  0  0  0  0  0
    1.6137    3.7044   -3.4554 O   0  0  0  0  0  0  0  0  0  0  0  0
    2.4576    4.6515   -1.1736 C   0  0  0  0  0  0  0  0  0  0  0  0
    3.5771    4.9412   -0.3861 C   0  0  0  0  0  0  0  0  0  0  0  0
    3.6007    6.1075    0.3907 C   0  0  0  0  0  0  0  0  0  0  0  0
    2.5092    6.9806    0.3658 C   0  0  0  0  0  0  0  0  0  0  0  0
    2.5806    8.6059    1.3318 Br  0  0  0  0  0  0  0  0  0  0  0  0
    1.3875    6.6860   -0.4061 C   0  0  0  0  0  0  0  0  0  0  0  0
    1.3644    5.5247   -1.1821 C   0  0  0  0  0  0  0  0  0  0  0  0
    1.9473   -1.0538   -1.3075 N   0  0  0  0  0  0  0  0  0  0  0  0
    1.3189   -2.2396   -0.8582 O   0  0  0  0  0  0  0  0  0  0  0  0
    3.7497    0.8886   -1.4884 H   0  0  0  0  0  0  0  0  0  0  0  0
    3.2656    1.7313   -0.0012 H   0  0  0  0  0  0  0  0  0  0  0  0
   -0.2468    1.3884   -3.0980 H   0  0  0  0  0  0  0  0  0  0  0  0
   -2.5877    1.2789   -2.3050 H   0  0  0  0  0  0  0  0  0  0  0  0
   -3.1281    1.7668    0.0580 H   0  0  0  0  0  0  0  0  0  0  0  0
    1.0502    2.5936    0.8316 H   0  0  0  0  0  0  0  0  0  0  0  0
    4.4604    4.3029   -0.4020 H   0  0  0  0  0  0  0  0  0  0  0  0
    4.4825    6.3520    0.9783 H   0  0  0  0  0  0  0  0  0  0  0  0
    0.5454    7.3755   -0.4413 H   0  0  0  0  0  0  0  0  0  0  0  0
    0.5035    5.3354   -1.8280 H   0  0  0  0  0  0  0  0  0  0  0  0
    1.6387   -0.7098   -2.2129 H   0  0  0  0  0  0  0  0  0  0  0  0
    2.0167   -2.6561   -0.3122 H   0  0  0  0  0  0  0  0  0  0  0  0
  1  2  2  0  0  0  0
  2  3  1  0  0  0  0
  2 24  1  0  0  0  0
  3  4  1  0  0  0  0
  3 26  1  0  0  0  0
  3 27  1  0  0  0  0
  4  5  1  0  0  0  0
  4 14  1  0  0  0  0
  5  6  1  0  0  0  0
  5 13  2  0  0  0  0
  6  7  2  0  0  0  0
  6 28  1  0  0  0  0
  7  8  1  0  0  0  0
  7 29  1  0  0  0  0
  8  9  2  0  0  0  0
  8 30  1  0  0  0  0
  9 10  1  0  0  0  0
  9 13  1  0  0  0  0
 10 11  2  0  0  0  0
 10 12  1  0  0  0  0
 13 31  1  0  0  0  0
 14 15  2  0  0  0  0
 14 16  2  0  0  0  0
 14 17  1  0  0  0  0
 17 18  1  0  0  0  0
 17 23  2  0  0  0  0
 18 19  2  0  0  0  0
 18 32  1  0  0  0  0
 19 20  1  0  0  0  0
 19 33  1  0  0  0  0
 20 21  1  0  0  0  0
 20 22  2  0  0  0  0
 22 23  1  0  0  0  0
 22 34  1  0  0  0  0
 23 35  1  0  0  0  0
 24 25  1  0  0  0  0
 24 36  1  0  0  0  0
 25 37  1  0  0  0  0
M  CHG  2  10   1  12  -1
M  END
>  <Line_Number>
124


> <IC50>
97

$$$$
