168292848.0
 OpenBabel09092522103D

 37 38  0  0  0  0  0  0  0  0999 V2000
    2.1476   -1.1040    1.9314 O   0  0  0  0  0  0  0  0  0  0  0  0
    2.6990   -0.6264    0.9394 C   0  0  0  0  0  0  0  0  0  0  0  0
    2.8652   -1.3674   -0.3789 C   0  0  0  0  0  0  0  0  0  0  0  0
    1.9041   -2.4869   -0.5591 N   0  0  0  0  0  0  0  0  0  0  0  0
    0.5080   -2.1483   -0.6644 C   0  0  0  0  0  0  0  0  0  0  0  0
    0.0321   -1.1812   -1.5579 C   0  0  0  0  0  0  0  0  0  0  0  0
   -1.3407   -0.9328   -1.6624 C   0  0  0  0  0  0  0  0  0  0  0  0
   -2.2471   -1.6789   -0.9076 C   0  0  0  0  0  0  0  0  0  0  0  0
   -1.7680   -2.6763   -0.0482 C   0  0  0  0  0  0  0  0  0  0  0  0
   -2.7140   -3.5081    0.7029 N   0  3  0  0  0  0  0  0  0  0  0  0
   -3.9220   -3.3607    0.4656 O   0  0  0  0  0  0  0  0  0  0  0  0
   -2.2550   -4.3088    1.5293 O   0  5  0  0  0  0  0  0  0  0  0  0
   -0.3951   -2.9062    0.0833 C   0  0  0  0  0  0  0  0  0  0  0  0
    2.4263   -3.7031   -1.6428 S   0  0  0  0  0  0  0  0  0  0  0  0
    1.3621   -4.6438   -1.9145 O   0  0  0  0  0  0  0  0  0  0  0  0
    3.1174   -3.0275   -2.7289 O   0  0  0  0  0  0  0  0  0  0  0  0
    3.6458   -4.5726   -0.7046 C   0  0  0  0  0  0  0  0  0  0  0  0
    4.9656   -4.6557   -1.1550 C   0  0  0  0  0  0  0  0  0  0  0  0
    5.8968   -5.3409   -0.3833 C   0  0  0  0  0  0  0  0  0  0  0  0
    7.1644   -5.4263   -0.8051 F   0  0  0  0  0  0  0  0  0  0  0  0
    5.5366   -5.9395    0.8212 C   0  0  0  0  0  0  0  0  0  0  0  0
    4.2113   -5.8682    1.2533 C   0  0  0  0  0  0  0  0  0  0  0  0
    3.2683   -5.1888    0.4854 C   0  0  0  0  0  0  0  0  0  0  0  0
    2.0030   -5.1488    0.9175 F   0  0  0  0  0  0  0  0  0  0  0  0
    3.2983    0.6065    1.0196 N   0  0  0  0  0  0  0  0  0  0  0  0
    3.6215    1.2741   -0.1770 O   0  0  0  0  0  0  0  0  0  0  0  0
    3.8917   -1.7517   -0.3667 H   0  0  0  0  0  0  0  0  0  0  0  0
    2.7791   -0.6756   -1.2218 H   0  0  0  0  0  0  0  0  0  0  0  0
    0.7122   -0.6172   -2.1909 H   0  0  0  0  0  0  0  0  0  0  0  0
   -1.7058   -0.1700   -2.3474 H   0  0  0  0  0  0  0  0  0  0  0  0
   -3.3133   -1.4854   -1.0102 H   0  0  0  0  0  0  0  0  0  0  0  0
   -0.0178   -3.6763    0.7522 H   0  0  0  0  0  0  0  0  0  0  0  0
    5.2774   -4.2110   -2.0968 H   0  0  0  0  0  0  0  0  0  0  0  0
    6.2860   -6.4619    1.4095 H   0  0  0  0  0  0  0  0  0  0  0  0
    3.9064   -6.3409    2.1829 H   0  0  0  0  0  0  0  0  0  0  0  0
    3.0213    1.1857    1.8090 H   0  0  0  0  0  0  0  0  0  0  0  0
    4.5896    1.1539   -0.2334 H   0  0  0  0  0  0  0  0  0  0  0  0
  1  2  2  0  0  0  0
  2  3  1  0  0  0  0
  2 25  1  0  0  0  0
  3  4  1  0  0  0  0
  3 27  1  0  0  0  0
  3 28  1  0  0  0  0
  4  5  1  0  0  0  0
  4 14  1  0  0  0  0
  5  6  1  0  0  0  0
  5 13  2  0  0  0  0
  6  7  2  0  0  0  0
  6 29  1  0  0  0  0
  7  8  1  0  0  0  0
  7 30  1  0  0  0  0
  8  9  2  0  0  0  0
  8 31  1  0  0  0  0
  9 10  1  0  0  0  0
  9 13  1  0  0  0  0
 10 11  2  0  0  0  0
 10 12  1  0  0  0  0
 13 32  1  0  0  0  0
 14 15  2  0  0  0  0
 14 16  2  0  0  0  0
 14 17  1  0  0  0  0
 17 18  1  0  0  0  0
 17 23  2  0  0  0  0
 18 19  2  0  0  0  0
 18 33  1  0  0  0  0
 19 20  1  0  0  0  0
 19 21  1  0  0  0  0
 21 22  2  0  0  0  0
 21 34  1  0  0  0  0
 22 23  1  0  0  0  0
 22 35  1  0  0  0  0
 23 24  1  0  0  0  0
 25 26  1  0  0  0  0
 25 36  1  0  0  0  0
 26 37  1  0  0  0  0
M  CHG  2  10   1  12  -1
M  END
>  <Line_Number>
125


> <IC50>
16400

$$$$
