168279374.0
 OpenBabel09092522103D

 37 38  0  0  0  0  0  0  0  0999 V2000
    2.3090   -0.7643   -0.6742 O   0  0  0  0  0  0  0  0  0  0  0  0
    2.3156    0.4011   -0.2813 C   0  0  0  0  0  0  0  0  0  0  0  0
    2.8622    0.7969    1.0798 C   0  0  0  0  0  0  0  0  0  0  0  0
    1.9141    1.5679    1.9258 N   0  0  0  0  0  0  0  0  0  0  0  0
    0.5386    1.1505    1.9649 C   0  0  0  0  0  0  0  0  0  0  0  0
   -0.4577    2.1154    1.7799 C   0  0  0  0  0  0  0  0  0  0  0  0
   -1.8049    1.7582    1.8047 C   0  0  0  0  0  0  0  0  0  0  0  0
   -2.1703    0.4308    2.0288 C   0  0  0  0  0  0  0  0  0  0  0  0
   -1.1705   -0.5311    2.2351 C   0  0  0  0  0  0  0  0  0  0  0  0
   -1.5426   -1.9293    2.4699 N   0  3  0  0  0  0  0  0  0  0  0  0
   -2.7431   -2.2241    2.4041 O   0  0  0  0  0  0  0  0  0  0  0  0
   -0.6310   -2.7300    2.7310 O   0  5  0  0  0  0  0  0  0  0  0  0
    0.1811   -0.1758    2.2153 C   0  0  0  0  0  0  0  0  0  0  0  0
    2.5685    2.1548    3.4010 S   0  0  0  0  0  0  0  0  0  0  0  0
    3.9757    2.4224    3.1830 O   0  0  0  0  0  0  0  0  0  0  0  0
    1.6911    3.1927    3.9035 O   0  0  0  0  0  0  0  0  0  0  0  0
    2.4660    0.7803    4.5431 C   0  0  0  0  0  0  0  0  0  0  0  0
    3.5088   -0.1506    4.6244 C   0  0  0  0  0  0  0  0  0  0  0  0
    3.4487   -1.1753    5.5752 C   0  0  0  0  0  0  0  0  0  0  0  0
    2.3637   -1.2541    6.4507 C   0  0  0  0  0  0  0  0  0  0  0  0
    2.3018   -2.5060    7.6289 Cl  0  0  0  0  0  0  0  0  0  0  0  0
    1.3377   -0.3118    6.3887 C   0  0  0  0  0  0  0  0  0  0  0  0
    1.3905    0.7132    5.4396 C   0  0  0  0  0  0  0  0  0  0  0  0
    1.8989    1.4586   -1.0570 N   0  0  0  0  0  0  0  0  0  0  0  0
    1.3011    1.1411   -2.2958 O   0  0  0  0  0  0  0  0  0  0  0  0
    3.7435    1.4171    0.8735 H   0  0  0  0  0  0  0  0  0  0  0  0
    3.1940   -0.1077    1.5982 H   0  0  0  0  0  0  0  0  0  0  0  0
   -0.1877    3.1561    1.6044 H   0  0  0  0  0  0  0  0  0  0  0  0
   -2.5743    2.5124    1.6408 H   0  0  0  0  0  0  0  0  0  0  0  0
   -3.2258    0.1614    2.0378 H   0  0  0  0  0  0  0  0  0  0  0  0
    0.9511   -0.9266    2.3853 H   0  0  0  0  0  0  0  0  0  0  0  0
    4.3780   -0.0792    3.9745 H   0  0  0  0  0  0  0  0  0  0  0  0
    4.2569   -1.9007    5.6450 H   0  0  0  0  0  0  0  0  0  0  0  0
    0.5050   -0.3611    7.0870 H   0  0  0  0  0  0  0  0  0  0  0  0
    0.5998    1.4610    5.4196 H   0  0  0  0  0  0  0  0  0  0  0  0
    1.6495    2.3568   -0.6526 H   0  0  0  0  0  0  0  0  0  0  0  0
    1.9078    0.4646   -2.6609 H   0  0  0  0  0  0  0  0  0  0  0  0
  1  2  2  0  0  0  0
  2  3  1  0  0  0  0
  2 24  1  0  0  0  0
  3  4  1  0  0  0  0
  3 26  1  0  0  0  0
  3 27  1  0  0  0  0
  4  5  1  0  0  0  0
  4 14  1  0  0  0  0
  5  6  1  0  0  0  0
  5 13  2  0  0  0  0
  6  7  2  0  0  0  0
  6 28  1  0  0  0  0
  7  8  1  0  0  0  0
  7 29  1  0  0  0  0
  8  9  2  0  0  0  0
  8 30  1  0  0  0  0
  9 10  1  0  0  0  0
  9 13  1  0  0  0  0
 10 11  2  0  0  0  0
 10 12  1  0  0  0  0
 13 31  1  0  0  0  0
 14 15  2  0  0  0  0
 14 16  2  0  0  0  0
 14 17  1  0  0  0  0
 17 18  1  0  0  0  0
 17 23  2  0  0  0  0
 18 19  2  0  0  0  0
 18 32  1  0  0  0  0
 19 20  1  0  0  0  0
 19 33  1  0  0  0  0
 20 21  1  0  0  0  0
 20 22  2  0  0  0  0
 22 23  1  0  0  0  0
 22 34  1  0  0  0  0
 23 35  1  0  0  0  0
 24 25  1  0  0  0  0
 24 36  1  0  0  0  0
 25 37  1  0  0  0  0
M  CHG  2  10   1  12  -1
M  END
>  <Line_Number>
126


> <IC50>
1750

$$$$
