168294924.0
 OpenBabel09092522103D

 40 41  0  0  0  0  0  0  0  0999 V2000
   -0.8069   -0.9525    5.3878 C   0  0  0  0  0  0  0  0  0  0  0  0
   -1.4793   -0.7363    4.0602 C   0  0  0  0  0  0  0  0  0  0  0  0
   -2.7872   -0.2432    3.9963 C   0  0  0  0  0  0  0  0  0  0  0  0
   -3.4187   -0.0379    2.7635 C   0  0  0  0  0  0  0  0  0  0  0  0
   -2.7316   -0.2935    1.5776 C   0  0  0  0  0  0  0  0  0  0  0  0
   -3.5376   -0.0352    0.0005 S   0  0  0  0  0  0  0  0  0  0  0  0
   -2.4899   -0.0212   -1.0038 O   0  0  0  0  0  0  0  0  0  0  0  0
   -4.6195   -0.9942   -0.0637 O   0  0  0  0  0  0  0  0  0  0  0  0
   -4.1702    1.5320    0.0480 N   0  0  0  0  0  0  0  0  0  0  0  0
   -3.2745    2.6921   -0.0930 C   0  0  0  0  0  0  0  0  0  0  0  0
   -2.7850    3.2592    1.2290 C   0  0  0  0  0  0  0  0  0  0  0  0
   -3.3745    3.0999    2.2954 O   0  0  0  0  0  0  0  0  0  0  0  0
   -1.6729    4.0739    1.0756 N   0  0  0  0  0  0  0  0  0  0  0  0
   -1.1136    4.5508    2.2825 O   0  0  0  0  0  0  0  0  0  0  0  0
   -5.5817    1.7507   -0.0678 C   0  0  0  0  0  0  0  0  0  0  0  0
   -6.2927    2.0798    1.0894 C   0  0  0  0  0  0  0  0  0  0  0  0
   -7.6442    2.4300    1.0232 C   0  0  0  0  0  0  0  0  0  0  0  0
   -8.2880    2.4826   -0.2098 C   0  0  0  0  0  0  0  0  0  0  0  0
   -7.5745    2.1689   -1.3725 C   0  0  0  0  0  0  0  0  0  0  0  0
   -8.2519    2.2934   -2.6702 N   0  3  0  0  0  0  0  0  0  0  0  0
   -9.4237    2.6999   -2.6760 O   0  0  0  0  0  0  0  0  0  0  0  0
   -7.6059    2.0072   -3.6867 O   0  5  0  0  0  0  0  0  0  0  0  0
   -6.2182    1.7942   -1.3110 C   0  0  0  0  0  0  0  0  0  0  0  0
   -1.4295   -0.8099    1.6271 C   0  0  0  0  0  0  0  0  0  0  0  0
   -0.8118   -1.0364    2.8660 C   0  0  0  0  0  0  0  0  0  0  0  0
   -1.4351   -0.5996    6.2136 H   0  0  0  0  0  0  0  0  0  0  0  0
    0.1356   -0.3973    5.4345 H   0  0  0  0  0  0  0  0  0  0  0  0
   -0.6075   -2.0159    5.5510 H   0  0  0  0  0  0  0  0  0  0  0  0
   -3.3317   -0.0132    4.9106 H   0  0  0  0  0  0  0  0  0  0  0  0
   -4.4403    0.3244    2.7475 H   0  0  0  0  0  0  0  0  0  0  0  0
   -3.8049    3.5086   -0.6020 H   0  0  0  0  0  0  0  0  0  0  0  0
   -2.4206    2.4505   -0.7338 H   0  0  0  0  0  0  0  0  0  0  0  0
   -0.9904    3.8585    0.3523 H   0  0  0  0  0  0  0  0  0  0  0  0
   -1.5873    5.3950    2.4115 H   0  0  0  0  0  0  0  0  0  0  0  0
   -5.7915    2.0910    2.0518 H   0  0  0  0  0  0  0  0  0  0  0  0
   -8.1767    2.6866    1.9334 H   0  0  0  0  0  0  0  0  0  0  0  0
   -9.3346    2.7808   -0.2439 H   0  0  0  0  0  0  0  0  0  0  0  0
   -5.6633    1.5643   -2.2191 H   0  0  0  0  0  0  0  0  0  0  0  0
   -0.8936   -1.0638    0.7153 H   0  0  0  0  0  0  0  0  0  0  0  0
    0.1926   -1.4563    2.8958 H   0  0  0  0  0  0  0  0  0  0  0  0
  1  2  1  0  0  0  0
  1 26  1  0  0  0  0
  1 27  1  0  0  0  0
  1 28  1  0  0  0  0
  2  3  1  0  0  0  0
  2 25  2  0  0  0  0
  3  4  2  0  0  0  0
  3 29  1  0  0  0  0
  4  5  1  0  0  0  0
  4 30  1  0  0  0  0
  5  6  1  0  0  0  0
  5 24  2  0  0  0  0
  6  7  2  0  0  0  0
  6  8  2  0  0  0  0
  6  9  1  0  0  0  0
  9 10  1  0  0  0  0
  9 15  1  0  0  0  0
 10 11  1  0  0  0  0
 10 31  1  0  0  0  0
 10 32  1  0  0  0  0
 11 12  2  0  0  0  0
 11 13  1  0  0  0  0
 13 14  1  0  0  0  0
 13 33  1  0  0  0  0
 14 34  1  0  0  0  0
 15 16  1  0  0  0  0
 15 23  2  0  0  0  0
 16 17  2  0  0  0  0
 16 35  1  0  0  0  0
 17 18  1  0  0  0  0
 17 36  1  0  0  0  0
 18 19  2  0  0  0  0
 18 37  1  0  0  0  0
 19 20  1  0  0  0  0
 19 23  1  0  0  0  0
 20 21  2  0  0  0  0
 20 22  1  0  0  0  0
 23 38  1  0  0  0  0
 24 25  1  0  0  0  0
 24 39  1  0  0  0  0
 25 40  1  0  0  0  0
M  CHG  2  20   1  22  -1
M  END
>  <Line_Number>
127


> <IC50>
5910

$$$$
