168277224.0
 OpenBabel09092522103D

 37 38  0  0  0  0  0  0  0  0999 V2000
    1.9589    1.6632   -1.3958 O   0  0  0  0  0  0  0  0  0  0  0  0
    2.5475    0.8562   -0.6781 C   0  0  0  0  0  0  0  0  0  0  0  0
    2.8516    1.0708    0.7972 C   0  0  0  0  0  0  0  0  0  0  0  0
    1.9001    1.9870    1.4786 N   0  0  0  0  0  0  0  0  0  0  0  0
    0.5274    1.5611    1.5745 C   0  0  0  0  0  0  0  0  0  0  0  0
   -0.4620    2.4596    1.1623 C   0  0  0  0  0  0  0  0  0  0  0  0
   -1.8143    2.1189    1.2439 C   0  0  0  0  0  0  0  0  0  0  0  0
   -2.1882    0.8697    1.7356 C   0  0  0  0  0  0  0  0  0  0  0  0
   -1.1968   -0.0231    2.1640 C   0  0  0  0  0  0  0  0  0  0  0  0
   -1.5832   -1.3582    2.6358 N   0  3  0  0  0  0  0  0  0  0  0  0
   -2.7835   -1.6630    2.5921 O   0  0  0  0  0  0  0  0  0  0  0  0
   -0.6801   -2.1127    3.0247 O   0  5  0  0  0  0  0  0  0  0  0  0
    0.1622    0.3267    2.1148 C   0  0  0  0  0  0  0  0  0  0  0  0
    2.5193    2.7218    2.8936 S   0  0  0  0  0  0  0  0  0  0  0  0
    1.4832    3.4596    3.5816 O   0  0  0  0  0  0  0  0  0  0  0  0
    3.2860    1.7009    3.5825 O   0  0  0  0  0  0  0  0  0  0  0  0
    3.6642    3.9108    2.2640 C   0  0  0  0  0  0  0  0  0  0  0  0
    5.0181    3.8664    2.6218 C   0  0  0  0  0  0  0  0  0  0  0  0
    5.8899    4.8429    2.1330 C   0  0  0  0  0  0  0  0  0  0  0  0
    5.4164    5.8543    1.2950 C   0  0  0  0  0  0  0  0  0  0  0  0
    4.0666    5.8900    0.9439 C   0  0  0  0  0  0  0  0  0  0  0  0
    3.1914    4.9246    1.4366 C   0  0  0  0  0  0  0  0  0  0  0  0
    1.9056    4.9845    1.0896 F   0  0  0  0  0  0  0  0  0  0  0  0
    3.0308   -0.3377   -1.1620 N   0  0  0  0  0  0  0  0  0  0  0  0
    2.7977   -0.6338   -2.5200 O   0  0  0  0  0  0  0  0  0  0  0  0
    3.8687    1.4749    0.8401 H   0  0  0  0  0  0  0  0  0  0  0  0
    2.8626    0.0993    1.3075 H   0  0  0  0  0  0  0  0  0  0  0  0
   -0.1796    3.4343    0.7683 H   0  0  0  0  0  0  0  0  0  0  0  0
   -2.5718    2.8277    0.9168 H   0  0  0  0  0  0  0  0  0  0  0  0
   -3.2445    0.6106    1.7796 H   0  0  0  0  0  0  0  0  0  0  0  0
    0.9203   -0.3552    2.4893 H   0  0  0  0  0  0  0  0  0  0  0  0
    5.3958    3.0934    3.2865 H   0  0  0  0  0  0  0  0  0  0  0  0
    6.9416    4.8252    2.4153 H   0  0  0  0  0  0  0  0  0  0  0  0
    6.0938    6.6196    0.9243 H   0  0  0  0  0  0  0  0  0  0  0  0
    3.6840    6.6747    0.2970 H   0  0  0  0  0  0  0  0  0  0  0  0
    3.5450   -1.0293   -0.6271 H   0  0  0  0  0  0  0  0  0  0  0  0
    2.0574   -0.0334   -2.7525 H   0  0  0  0  0  0  0  0  0  0  0  0
  1  2  2  0  0  0  0
  2  3  1  0  0  0  0
  2 24  1  0  0  0  0
  3  4  1  0  0  0  0
  3 26  1  0  0  0  0
  3 27  1  0  0  0  0
  4  5  1  0  0  0  0
  4 14  1  0  0  0  0
  5  6  1  0  0  0  0
  5 13  2  0  0  0  0
  6  7  2  0  0  0  0
  6 28  1  0  0  0  0
  7  8  1  0  0  0  0
  7 29  1  0  0  0  0
  8  9  2  0  0  0  0
  8 30  1  0  0  0  0
  9 10  1  0  0  0  0
  9 13  1  0  0  0  0
 10 11  2  0  0  0  0
 10 12  1  0  0  0  0
 13 31  1  0  0  0  0
 14 15  2  0  0  0  0
 14 16  2  0  0  0  0
 14 17  1  0  0  0  0
 17 18  1  0  0  0  0
 17 22  2  0  0  0  0
 18 19  2  0  0  0  0
 18 32  1  0  0  0  0
 19 20  1  0  0  0  0
 19 33  1  0  0  0  0
 20 21  2  0  0  0  0
 20 34  1  0  0  0  0
 21 22  1  0  0  0  0
 21 35  1  0  0  0  0
 22 23  1  0  0  0  0
 24 25  1  0  0  0  0
 24 36  1  0  0  0  0
 25 37  1  0  0  0  0
M  CHG  2  10   1  12  -1
M  END
>  <Line_Number>
129


> <IC50>
6900

$$$$
