168296539.0
 OpenBabel09092522103D

 37 38  0  0  0  0  0  0  0  0999 V2000
    1.9285    0.9125    1.8435 O   0  0  0  0  0  0  0  0  0  0  0  0
    2.5762    0.4173    0.9218 C   0  0  0  0  0  0  0  0  0  0  0  0
    2.8319   -1.0795    0.7827 C   0  0  0  0  0  0  0  0  0  0  0  0
    1.8256   -1.9149    1.4999 N   0  0  0  0  0  0  0  0  0  0  0  0
    0.4866   -1.8880    0.9606 C   0  0  0  0  0  0  0  0  0  0  0  0
   -0.5615   -1.5797    1.8344 C   0  0  0  0  0  0  0  0  0  0  0  0
   -1.8791   -1.5230    1.3738 C   0  0  0  0  0  0  0  0  0  0  0  0
   -2.1567   -1.7602    0.0285 C   0  0  0  0  0  0  0  0  0  0  0  0
   -1.1072   -2.0800   -0.8434 C   0  0  0  0  0  0  0  0  0  0  0  0
   -1.3871   -2.2634   -2.2730 N   0  3  0  0  0  0  0  0  0  0  0  0
   -2.5443   -2.0565   -2.6655 O   0  0  0  0  0  0  0  0  0  0  0  0
   -0.4441   -2.5894   -3.0076 O   0  5  0  0  0  0  0  0  0  0  0  0
    0.2126   -2.1810   -0.3775 C   0  0  0  0  0  0  0  0  0  0  0  0
    2.3930   -3.4720    1.9257 S   0  0  0  0  0  0  0  0  0  0  0  0
    1.2960   -4.2720    2.4272 O   0  0  0  0  0  0  0  0  0  0  0  0
    3.2292   -3.9359    0.8343 O   0  0  0  0  0  0  0  0  0  0  0  0
    3.4480   -3.1498    3.3235 C   0  0  0  0  0  0  0  0  0  0  0  0
    2.8953   -2.5609    4.4689 C   0  0  0  0  0  0  0  0  0  0  0  0
    3.6856   -2.3853    5.6088 C   0  0  0  0  0  0  0  0  0  0  0  0
    5.0176   -2.7961    5.6017 C   0  0  0  0  0  0  0  0  0  0  0  0
    5.5514   -3.3783    4.4548 C   0  0  0  0  0  0  0  0  0  0  0  0
    6.8287   -3.7840    4.4615 F   0  0  0  0  0  0  0  0  0  0  0  0
    4.7819   -3.5630    3.3115 C   0  0  0  0  0  0  0  0  0  0  0  0
    3.1954    1.2293    0.0050 N   0  0  0  0  0  0  0  0  0  0  0  0
    3.6162    0.6627   -1.2127 O   0  0  0  0  0  0  0  0  0  0  0  0
    3.8318   -1.2484    1.1930 H   0  0  0  0  0  0  0  0  0  0  0  0
    2.8500   -1.3636   -0.2747 H   0  0  0  0  0  0  0  0  0  0  0  0
   -0.3518   -1.3644    2.8796 H   0  0  0  0  0  0  0  0  0  0  0  0
   -2.6848   -1.2781    2.0625 H   0  0  0  0  0  0  0  0  0  0  0  0
   -3.1847   -1.6885   -0.3224 H   0  0  0  0  0  0  0  0  0  0  0  0
    1.0147   -2.4659   -1.0533 H   0  0  0  0  0  0  0  0  0  0  0  0
    1.8484   -2.2643    4.4874 H   0  0  0  0  0  0  0  0  0  0  0  0
    3.2568   -1.9456    6.5075 H   0  0  0  0  0  0  0  0  0  0  0  0
    5.6391   -2.6795    6.4850 H   0  0  0  0  0  0  0  0  0  0  0  0
    5.2230   -4.0514    2.4483 H   0  0  0  0  0  0  0  0  0  0  0  0
    2.8635    2.1905   -0.0295 H   0  0  0  0  0  0  0  0  0  0  0  0
    4.5863    0.6158   -1.1054 H   0  0  0  0  0  0  0  0  0  0  0  0
  1  2  2  0  0  0  0
  2  3  1  0  0  0  0
  2 24  1  0  0  0  0
  3  4  1  0  0  0  0
  3 26  1  0  0  0  0
  3 27  1  0  0  0  0
  4  5  1  0  0  0  0
  4 14  1  0  0  0  0
  5  6  1  0  0  0  0
  5 13  2  0  0  0  0
  6  7  2  0  0  0  0
  6 28  1  0  0  0  0
  7  8  1  0  0  0  0
  7 29  1  0  0  0  0
  8  9  2  0  0  0  0
  8 30  1  0  0  0  0
  9 10  1  0  0  0  0
  9 13  1  0  0  0  0
 10 11  2  0  0  0  0
 10 12  1  0  0  0  0
 13 31  1  0  0  0  0
 14 15  2  0  0  0  0
 14 16  2  0  0  0  0
 14 17  1  0  0  0  0
 17 18  1  0  0  0  0
 17 23  2  0  0  0  0
 18 19  2  0  0  0  0
 18 32  1  0  0  0  0
 19 20  1  0  0  0  0
 19 33  1  0  0  0  0
 20 21  2  0  0  0  0
 20 34  1  0  0  0  0
 21 22  1  0  0  0  0
 21 23  1  0  0  0  0
 23 35  1  0  0  0  0
 24 25  1  0  0  0  0
 24 36  1  0  0  0  0
 25 37  1  0  0  0  0
M  CHG  2  10   1  12  -1
M  END
>  <Line_Number>
130


> <IC50>
740

$$$$
