168295164.0
 OpenBabel09092522103D

 40 41  0  0  0  0  0  0  0  0999 V2000
    2.4554    0.9506    0.3217 O   0  0  0  0  0  0  0  0  0  0  0  0
    2.4733   -0.2779    0.3749 C   0  0  0  0  0  0  0  0  0  0  0  0
    2.9846   -1.1277   -0.7772 C   0  0  0  0  0  0  0  0  0  0  0  0
    2.0103   -2.1298   -1.2846 N   0  0  0  0  0  0  0  0  0  0  0  0
    0.6248   -1.7576   -1.3781 C   0  0  0  0  0  0  0  0  0  0  0  0
   -0.3439   -2.6247   -0.8647 C   0  0  0  0  0  0  0  0  0  0  0  0
   -1.6957   -2.2699   -0.8948 C   0  0  0  0  0  0  0  0  0  0  0  0
   -2.0840   -1.0482   -1.4451 C   0  0  0  0  0  0  0  0  0  0  0  0
   -1.1099   -0.1958   -1.9813 C   0  0  0  0  0  0  0  0  0  0  0  0
   -1.5004    1.1047   -2.5383 N   0  3  0  0  0  0  0  0  0  0  0  0
   -2.6848    1.4481   -2.4220 O   0  0  0  0  0  0  0  0  0  0  0  0
   -0.6240    1.7757   -3.1002 O   0  5  0  0  0  0  0  0  0  0  0  0
    0.2430   -0.5548   -1.9721 C   0  0  0  0  0  0  0  0  0  0  0  0
    2.6066   -3.1703   -2.5074 S   0  0  0  0  0  0  0  0  0  0  0  0
    4.0339   -3.3169   -2.3005 O   0  0  0  0  0  0  0  0  0  0  0  0
    1.7514   -4.3379   -2.5600 O   0  0  0  0  0  0  0  0  0  0  0  0
    2.3920   -2.2908   -4.0522 C   0  0  0  0  0  0  0  0  0  0  0  0
    3.3975   -1.4494   -4.5364 C   0  0  0  0  0  0  0  0  0  0  0  0
    3.2930   -0.9093   -5.8248 C   0  0  0  0  0  0  0  0  0  0  0  0
    2.1979   -1.2205   -6.6498 C   0  0  0  0  0  0  0  0  0  0  0  0
    2.1077   -0.7093   -8.0727 C   0  0  0  0  0  0  0  0  0  0  0  0
    3.1389    0.1061   -8.4276 F   0  0  0  0  0  0  0  0  0  0  0  0
    2.1037   -1.7217   -8.9850 F   0  0  0  0  0  0  0  0  0  0  0  0
    0.9698    0.0021   -8.3018 F   0  0  0  0  0  0  0  0  0  0  0  0
    1.1924   -2.0626   -6.1482 C   0  0  0  0  0  0  0  0  0  0  0  0
    1.2884   -2.5994   -4.8599 C   0  0  0  0  0  0  0  0  0  0  0  0
    2.1024   -1.0011    1.4864 N   0  0  0  0  0  0  0  0  0  0  0  0
    1.4662   -0.2571    2.5125 O   0  0  0  0  0  0  0  0  0  0  0  0
    3.8680   -1.6509   -0.3910 H   0  0  0  0  0  0  0  0  0  0  0  0
    3.3039   -0.4622   -1.5848 H   0  0  0  0  0  0  0  0  0  0  0  0
   -0.0547   -3.5748   -0.4170 H   0  0  0  0  0  0  0  0  0  0  0  0
   -2.4436   -2.9403   -0.4743 H   0  0  0  0  0  0  0  0  0  0  0  0
   -3.1374   -0.7745   -1.4450 H   0  0  0  0  0  0  0  0  0  0  0  0
    0.9916    0.1113   -2.3933 H   0  0  0  0  0  0  0  0  0  0  0  0
    4.2841   -1.2385   -3.9427 H   0  0  0  0  0  0  0  0  0  0  0  0
    4.0921   -0.2692   -6.2018 H   0  0  0  0  0  0  0  0  0  0  0  0
    0.3442   -2.3314   -6.7790 H   0  0  0  0  0  0  0  0  0  0  0  0
    0.5200   -3.2891   -4.5151 H   0  0  0  0  0  0  0  0  0  0  0  0
    1.7995   -1.9658    1.3983 H   0  0  0  0  0  0  0  0  0  0  0  0
    2.1765    0.3480    2.8063 H   0  0  0  0  0  0  0  0  0  0  0  0
  1  2  2  0  0  0  0
  2  3  1  0  0  0  0
  2 27  1  0  0  0  0
  3  4  1  0  0  0  0
  3 29  1  0  0  0  0
  3 30  1  0  0  0  0
  4  5  1  0  0  0  0
  4 14  1  0  0  0  0
  5  6  1  0  0  0  0
  5 13  2  0  0  0  0
  6  7  2  0  0  0  0
  6 31  1  0  0  0  0
  7  8  1  0  0  0  0
  7 32  1  0  0  0  0
  8  9  2  0  0  0  0
  8 33  1  0  0  0  0
  9 10  1  0  0  0  0
  9 13  1  0  0  0  0
 10 11  2  0  0  0  0
 10 12  1  0  0  0  0
 13 34  1  0  0  0  0
 14 15  2  0  0  0  0
 14 16  2  0  0  0  0
 14 17  1  0  0  0  0
 17 18  1  0  0  0  0
 17 26  2  0  0  0  0
 18 19  2  0  0  0  0
 18 35  1  0  0  0  0
 19 20  1  0  0  0  0
 19 36  1  0  0  0  0
 20 21  1  0  0  0  0
 20 25  2  0  0  0  0
 21 22  1  0  0  0  0
 21 23  1  0  0  0  0
 21 24  1  0  0  0  0
 25 26  1  0  0  0  0
 25 37  1  0  0  0  0
 26 38  1  0  0  0  0
 27 28  1  0  0  0  0
 27 39  1  0  0  0  0
 28 40  1  0  0  0  0
M  CHG  2  10   1  12  -1
M  END
>  <Line_Number>
132


> <IC50>
9570

$$$$
