168286714.0
 OpenBabel09092522103D

 40 41  0  0  0  0  0  0  0  0999 V2000
   -1.0808   -0.4019    0.8568 C   0  0  0  0  0  0  0  0  0  0  0  0
   -0.5702   -0.4432   -0.5548 C   0  0  0  0  0  0  0  0  0  0  0  0
   -1.2381    0.3505   -1.5094 C   0  0  0  0  0  0  0  0  0  0  0  0
   -0.8249    0.3895   -2.8412 C   0  0  0  0  0  0  0  0  0  0  0  0
    0.2750   -0.3557   -3.2475 C   0  0  0  0  0  0  0  0  0  0  0  0
    0.9282   -1.1827   -2.3323 C   0  0  0  0  0  0  0  0  0  0  0  0
    0.5006   -1.2481   -0.9917 C   0  0  0  0  0  0  0  0  0  0  0  0
    1.2020   -2.5810   -0.0150 S   0  0  0  0  0  0  0  0  0  0  0  0
    0.7660   -2.4844    1.3603 O   0  0  0  0  0  0  0  0  0  0  0  0
    0.9450   -3.7832   -0.7871 O   0  0  0  0  0  0  0  0  0  0  0  0
    2.9253   -2.2831   -0.0231 N   0  0  0  0  0  0  0  0  0  0  0  0
    3.3709   -1.2819    0.9994 C   0  0  0  0  0  0  0  0  0  0  0  0
    2.9686    0.1473    0.7449 C   0  0  0  0  0  0  0  0  0  0  0  0
    2.3521    0.8322    1.5600 O   0  0  0  0  0  0  0  0  0  0  0  0
    3.4349    0.6737   -0.4359 N   0  0  0  0  0  0  0  0  0  0  0  0
    3.0561    2.0124   -0.6932 O   0  0  0  0  0  0  0  0  0  0  0  0
    3.6753   -3.5346    0.0096 C   0  0  0  0  0  0  0  0  0  0  0  0
    3.9569   -4.2093    1.2070 C   0  0  0  0  0  0  0  0  0  0  0  0
    4.5928   -5.4582    1.1915 C   0  0  0  0  0  0  0  0  0  0  0  0
    4.9174   -6.0604   -0.0215 C   0  0  0  0  0  0  0  0  0  0  0  0
    4.6029   -5.4031   -1.2168 C   0  0  0  0  0  0  0  0  0  0  0  0
    4.9005   -6.0549   -2.4996 N   0  3  0  0  0  0  0  0  0  0  0  0
    5.3460   -7.2122   -2.4714 O   0  0  0  0  0  0  0  0  0  0  0  0
    4.7039   -5.4025   -3.5348 O   0  5  0  0  0  0  0  0  0  0  0  0
    3.9863   -4.1414   -1.2094 C   0  0  0  0  0  0  0  0  0  0  0  0
   -1.8188    0.3991    0.9864 H   0  0  0  0  0  0  0  0  0  0  0  0
   -0.2671   -0.1783    1.5522 H   0  0  0  0  0  0  0  0  0  0  0  0
   -1.5707   -1.3421    1.1234 H   0  0  0  0  0  0  0  0  0  0  0  0
   -2.1112    0.9360   -1.2218 H   0  0  0  0  0  0  0  0  0  0  0  0
   -1.3715    0.9956   -3.5606 H   0  0  0  0  0  0  0  0  0  0  0  0
    0.5943   -0.3256   -4.2869 H   0  0  0  0  0  0  0  0  0  0  0  0
    1.7353   -1.8187   -2.6879 H   0  0  0  0  0  0  0  0  0  0  0  0
    4.4694   -1.2844    1.0420 H   0  0  0  0  0  0  0  0  0  0  0  0
    3.0268   -1.5647    2.0006 H   0  0  0  0  0  0  0  0  0  0  0  0
    3.6328    0.0948   -1.2464 H   0  0  0  0  0  0  0  0  0  0  0  0
    2.5651    2.2603    0.1220 H   0  0  0  0  0  0  0  0  0  0  0  0
    3.6711   -3.7926    2.1687 H   0  0  0  0  0  0  0  0  0  0  0  0
    4.8136   -5.9681    2.1268 H   0  0  0  0  0  0  0  0  0  0  0  0
    5.3937   -7.0411   -0.0186 H   0  0  0  0  0  0  0  0  0  0  0  0
    3.7235   -3.6500   -2.1392 H   0  0  0  0  0  0  0  0  0  0  0  0
  1  2  1  0  0  0  0
  1 26  1  0  0  0  0
  1 27  1  0  0  0  0
  1 28  1  0  0  0  0
  2  3  1  0  0  0  0
  2  7  2  0  0  0  0
  3  4  2  0  0  0  0
  3 29  1  0  0  0  0
  4  5  1  0  0  0  0
  4 30  1  0  0  0  0
  5  6  2  0  0  0  0
  5 31  1  0  0  0  0
  6  7  1  0  0  0  0
  6 32  1  0  0  0  0
  7  8  1  0  0  0  0
  8  9  2  0  0  0  0
  8 10  2  0  0  0  0
  8 11  1  0  0  0  0
 11 12  1  0  0  0  0
 11 17  1  0  0  0  0
 12 13  1  0  0  0  0
 12 33  1  0  0  0  0
 12 34  1  0  0  0  0
 13 14  2  0  0  0  0
 13 15  1  0  0  0  0
 15 16  1  0  0  0  0
 15 35  1  0  0  0  0
 16 36  1  0  0  0  0
 17 18  1  0  0  0  0
 17 25  2  0  0  0  0
 18 19  2  0  0  0  0
 18 37  1  0  0  0  0
 19 20  1  0  0  0  0
 19 38  1  0  0  0  0
 20 21  2  0  0  0  0
 20 39  1  0  0  0  0
 21 22  1  0  0  0  0
 21 25  1  0  0  0  0
 22 23  2  0  0  0  0
 22 24  1  0  0  0  0
 25 40  1  0  0  0  0
M  CHG  2  22   1  24  -1
M  END
>  <Line_Number>
133


> <IC50>
7100

$$$$
