CHEMBL4128654
 OpenBabel09092522103D

 57 60  0  0  0  0  0  0  0  0999 V2000
    1.0637   12.7467   -3.0980 C   0  0  0  0  0  0  0  0  0  0  0  0
   -0.3072   13.0640   -2.5641 C   0  0  0  0  0  0  0  0  0  0  0  0
   -0.8780   14.2931   -2.9530 C   0  0  0  0  0  0  0  0  0  0  0  0
   -2.1049   14.7140   -2.4495 C   0  0  0  0  0  0  0  0  0  0  0  0
   -2.7869   13.9065   -1.5498 C   0  0  0  0  0  0  0  0  0  0  0  0
   -2.2522   12.6720   -1.1393 C   0  0  0  0  0  0  0  0  0  0  0  0
   -3.0784   11.8219   -0.2095 C   0  0  0  0  0  0  0  0  0  0  0  0
   -1.0065   12.2390   -1.6539 C   0  0  0  0  0  0  0  0  0  0  0  0
   -0.4628   11.0239   -1.1516 N   0  0  0  0  0  0  0  0  0  0  0  0
   -0.0918    9.9555   -1.9531 C   0  0  0  0  0  0  0  0  0  0  0  0
   -0.1342    9.9261   -3.1797 O   0  0  0  0  0  0  0  0  0  0  0  0
    0.4133    8.7504   -1.1735 C   0  0  0  0  0  0  0  0  0  0  0  0
    1.9326    8.8263   -1.0613 C   0  0  0  0  0  0  0  0  0  0  0  0
    2.6546    7.3437   -0.2748 S   0  0  0  0  0  0  0  0  0  0  0  0
    4.3341    7.8172   -0.2595 C   0  0  0  0  0  0  0  0  0  0  0  0
    4.7452    9.0689   -0.2763 N   0  0  0  0  0  0  0  0  0  0  0  0
    6.1211    9.0460   -0.2643 N   0  0  0  0  0  0  0  0  0  0  0  0
    6.4665    7.7735   -0.2424 C   0  0  0  0  0  0  0  0  0  0  0  0
    7.8298    7.1965   -0.2127 C   0  0  0  0  0  0  0  0  0  0  0  0
    8.4061    6.9775   -1.5766 C   0  0  0  0  0  0  0  0  0  0  0  0
    8.5612    7.8964   -2.6027 C   0  0  0  0  0  0  0  0  0  0  0  0
    9.2544    7.1296   -3.9786 S   0  0  0  0  0  0  0  0  0  0  0  0
    9.3872    5.6868   -3.0794 C   0  0  0  0  0  0  0  0  0  0  0  0
    9.9860    4.6462   -3.7336 N   0  0  0  0  0  0  0  0  0  0  0  0
   10.3009    3.4816   -3.0667 C   0  0  0  0  0  0  0  0  0  0  0  0
   10.1301    3.2626   -1.8709 O   0  0  0  0  0  0  0  0  0  0  0  0
   10.9090    2.3904   -3.8840 C   0  0  0  0  0  0  0  0  0  0  0  0
   11.5873    2.6121   -5.0887 C   0  0  0  0  0  0  0  0  0  0  0  0
   12.1445    1.5341   -5.7847 C   0  0  0  0  0  0  0  0  0  0  0  0
   12.0380    0.2377   -5.2791 C   0  0  0  0  0  0  0  0  0  0  0  0
   11.3771    0.0119   -4.0748 C   0  0  0  0  0  0  0  0  0  0  0  0
   10.8159    1.0824   -3.3807 C   0  0  0  0  0  0  0  0  0  0  0  0
    8.9104    5.7216   -1.8643 N   0  0  0  0  0  0  0  0  0  0  0  0
    5.3826    6.9287   -0.2258 O   0  0  0  0  0  0  0  0  0  0  0  0
    1.4795   13.5984   -3.6514 H   0  0  0  0  0  0  0  0  0  0  0  0
    1.0345   11.9114   -3.7988 H   0  0  0  0  0  0  0  0  0  0  0  0
    1.7569   12.5332   -2.2792 H   0  0  0  0  0  0  0  0  0  0  0  0
   -0.3504   14.9500   -3.6407 H   0  0  0  0  0  0  0  0  0  0  0  0
   -2.5240   15.6676   -2.7556 H   0  0  0  0  0  0  0  0  0  0  0  0
   -3.7513   14.2408   -1.1748 H   0  0  0  0  0  0  0  0  0  0  0  0
   -4.0427   12.2905    0.0133 H   0  0  0  0  0  0  0  0  0  0  0  0
   -2.5574   11.6714    0.7396 H   0  0  0  0  0  0  0  0  0  0  0  0
   -3.2901   10.8531   -0.6756 H   0  0  0  0  0  0  0  0  0  0  0  0
   -0.7845   10.7595   -0.2302 H   0  0  0  0  0  0  0  0  0  0  0  0
    0.0947    7.8481   -1.7100 H   0  0  0  0  0  0  0  0  0  0  0  0
   -0.0563    8.7149   -0.1826 H   0  0  0  0  0  0  0  0  0  0  0  0
    2.2073    9.7106   -0.4768 H   0  0  0  0  0  0  0  0  0  0  0  0
    2.3758    8.9290   -2.0579 H   0  0  0  0  0  0  0  0  0  0  0  0
    7.8185    6.2511    0.3423 H   0  0  0  0  0  0  0  0  0  0  0  0
    8.4939    7.8731    0.3386 H   0  0  0  0  0  0  0  0  0  0  0  0
    8.2939    8.9445   -2.6186 H   0  0  0  0  0  0  0  0  0  0  0  0
   10.1762    4.7809   -4.7120 H   0  0  0  0  0  0  0  0  0  0  0  0
   11.7276    3.6081   -5.4948 H   0  0  0  0  0  0  0  0  0  0  0  0
   12.6758    1.7046   -6.7178 H   0  0  0  0  0  0  0  0  0  0  0  0
   12.4801   -0.5960   -5.8182 H   0  0  0  0  0  0  0  0  0  0  0  0
   11.3015   -0.9940   -3.6695 H   0  0  0  0  0  0  0  0  0  0  0  0
   10.3083    0.8968   -2.4355 H   0  0  0  0  0  0  0  0  0  0  0  0
  1  2  1  0  0  0  0
  1 35  1  0  0  0  0
  1 36  1  0  0  0  0
  1 37  1  0  0  0  0
  2  3  1  0  0  0  0
  2  8  2  0  0  0  0
  3  4  2  0  0  0  0
  3 38  1  0  0  0  0
  4  5  1  0  0  0  0
  4 39  1  0  0  0  0
  5  6  2  0  0  0  0
  5 40  1  0  0  0  0
  6  7  1  0  0  0  0
  6  8  1  0  0  0  0
  7 41  1  0  0  0  0
  7 42  1  0  0  0  0
  7 43  1  0  0  0  0
  8  9  1  0  0  0  0
  9 10  1  0  0  0  0
  9 44  1  0  0  0  0
 10 11  2  0  0  0  0
 10 12  1  0  0  0  0
 12 13  1  0  0  0  0
 12 45  1  0  0  0  0
 12 46  1  0  0  0  0
 13 14  1  0  0  0  0
 13 47  1  0  0  0  0
 13 48  1  0  0  0  0
 14 15  1  0  0  0  0
 15 16  2  0  0  0  0
 15 34  1  0  0  0  0
 16 17  1  0  0  0  0
 17 18  2  0  0  0  0
 18 19  1  0  0  0  0
 18 34  1  0  0  0  0
 19 20  1  0  0  0  0
 19 49  1  0  0  0  0
 19 50  1  0  0  0  0
 20 21  2  0  0  0  0
 20 33  1  0  0  0  0
 21 22  1  0  0  0  0
 21 51  1  0  0  0  0
 22 23  1  0  0  0  0
 23 24  1  0  0  0  0
 23 33  2  0  0  0  0
 24 25  1  0  0  0  0
 24 52  1  0  0  0  0
 25 26  2  0  0  0  0
 25 27  1  0  0  0  0
 27 28  1  0  0  0  0
 27 32  2  0  0  0  0
 28 29  2  0  0  0  0
 28 53  1  0  0  0  0
 29 30  1  0  0  0  0
 29 54  1  0  0  0  0
 30 31  2  0  0  0  0
 30 55  1  0  0  0  0
 31 32  1  0  0  0  0
 31 56  1  0  0  0  0
 32 57  1  0  0  0  0
M  END
>  <Line_Number>
135


> <IC50>
2790

$$$$
