CHEMBL4129736
 OpenBabel09092522103D

 54 57  0  0  0  0  0  0  0  0999 V2000
    0.7983    0.0819    0.3290 C   0  0  0  0  0  0  0  0  0  0  0  0
    1.1692    0.2244   -1.1227 C   0  0  0  0  0  0  0  0  0  0  0  0
    0.7572    1.4013   -1.7816 C   0  0  0  0  0  0  0  0  0  0  0  0
    1.0506    1.6156   -3.1279 C   0  0  0  0  0  0  0  0  0  0  0  0
    1.7695    0.6619   -3.8317 C   0  0  0  0  0  0  0  0  0  0  0  0
    2.1788   -0.5108   -3.1941 C   0  0  0  0  0  0  0  0  0  0  0  0
    1.8766   -0.7618   -1.8468 C   0  0  0  0  0  0  0  0  0  0  0  0
    2.2940   -1.9701   -1.2178 N   0  0  0  0  0  0  0  0  0  0  0  0
    2.7285   -3.1190   -1.8703 C   0  0  0  0  0  0  0  0  0  0  0  0
    2.7330   -3.3173   -3.0833 O   0  0  0  0  0  0  0  0  0  0  0  0
    3.2708   -4.1975   -0.9551 C   0  0  0  0  0  0  0  0  0  0  0  0
    4.7827   -4.0383   -0.8430 C   0  0  0  0  0  0  0  0  0  0  0  0
    5.5004   -5.4169    0.1065 S   0  0  0  0  0  0  0  0  0  0  0  0
    7.1829   -4.9746    0.0845 C   0  0  0  0  0  0  0  0  0  0  0  0
    7.6348   -3.7401    0.0042 N   0  0  0  0  0  0  0  0  0  0  0  0
    9.0116   -3.8176    0.0222 N   0  0  0  0  0  0  0  0  0  0  0  0
    9.3099   -5.0976    0.1081 C   0  0  0  0  0  0  0  0  0  0  0  0
   10.6391   -5.7581    0.0907 C   0  0  0  0  0  0  0  0  0  0  0  0
   11.2085   -5.9905    1.4560 C   0  0  0  0  0  0  0  0  0  0  0  0
   11.5875   -5.0421    2.3917 C   0  0  0  0  0  0  0  0  0  0  0  0
   12.2529   -5.8159    3.7767 S   0  0  0  0  0  0  0  0  0  0  0  0
   11.9626   -7.3308    3.0477 C   0  0  0  0  0  0  0  0  0  0  0  0
   12.3138   -8.4118    3.8110 N   0  0  0  0  0  0  0  0  0  0  0  0
   12.0308   -9.6997    3.4019 C   0  0  0  0  0  0  0  0  0  0  0  0
   11.4437  -10.0021    2.3671 O   0  0  0  0  0  0  0  0  0  0  0  0
   12.4503  -10.8200    4.3072 C   0  0  0  0  0  0  0  0  0  0  0  0
   13.2992  -10.6638    5.4108 C   0  0  0  0  0  0  0  0  0  0  0  0
   13.6527  -11.7734    6.1898 C   0  0  0  0  0  0  0  0  0  0  0  0
   13.1711  -13.0430    5.8721 C   0  0  0  0  0  0  0  0  0  0  0  0
   12.3318  -13.2117    4.7757 C   0  0  0  0  0  0  0  0  0  0  0  0
   11.9742  -12.1076    4.0002 C   0  0  0  0  0  0  0  0  0  0  0  0
   11.4436   -7.2989    1.8494 N   0  0  0  0  0  0  0  0  0  0  0  0
    8.1964   -5.8948    0.1599 O   0  0  0  0  0  0  0  0  0  0  0  0
    0.1721    0.9176    0.6683 H   0  0  0  0  0  0  0  0  0  0  0  0
    1.6948    0.0729    0.9551 H   0  0  0  0  0  0  0  0  0  0  0  0
    0.2212   -0.8326    0.4900 H   0  0  0  0  0  0  0  0  0  0  0  0
    0.1983    2.1678   -1.2471 H   0  0  0  0  0  0  0  0  0  0  0  0
    0.7201    2.5247   -3.6228 H   0  0  0  0  0  0  0  0  0  0  0  0
    2.0107    0.8185   -4.8795 H   0  0  0  0  0  0  0  0  0  0  0  0
    2.7590   -1.2100   -3.7873 H   0  0  0  0  0  0  0  0  0  0  0  0
    2.1588   -2.0278   -0.2166 H   0  0  0  0  0  0  0  0  0  0  0  0
    3.0091   -5.1636   -1.4076 H   0  0  0  0  0  0  0  0  0  0  0  0
    2.7789   -4.1548    0.0222 H   0  0  0  0  0  0  0  0  0  0  0  0
    5.0208   -3.0887   -0.3526 H   0  0  0  0  0  0  0  0  0  0  0  0
    5.2388   -4.0238   -1.8401 H   0  0  0  0  0  0  0  0  0  0  0  0
   11.3413   -5.1412   -0.4835 H   0  0  0  0  0  0  0  0  0  0  0  0
   10.5632   -6.7135   -0.4427 H   0  0  0  0  0  0  0  0  0  0  0  0
   11.5135   -3.9648    2.3289 H   0  0  0  0  0  0  0  0  0  0  0  0
   12.7229   -8.2086    4.7070 H   0  0  0  0  0  0  0  0  0  0  0  0
   13.7187   -9.7037    5.6866 H   0  0  0  0  0  0  0  0  0  0  0  0
   14.3148  -11.6500    7.0442 H   0  0  0  0  0  0  0  0  0  0  0  0
   13.4544  -13.9027    6.4745 H   0  0  0  0  0  0  0  0  0  0  0  0
   11.9576  -14.1992    4.5163 H   0  0  0  0  0  0  0  0  0  0  0  0
   11.3189  -12.2597    3.1427 H   0  0  0  0  0  0  0  0  0  0  0  0
  1  2  1  0  0  0  0
  1 34  1  0  0  0  0
  1 35  1  0  0  0  0
  1 36  1  0  0  0  0
  2  3  1  0  0  0  0
  2  7  2  0  0  0  0
  3  4  2  0  0  0  0
  3 37  1  0  0  0  0
  4  5  1  0  0  0  0
  4 38  1  0  0  0  0
  5  6  2  0  0  0  0
  5 39  1  0  0  0  0
  6  7  1  0  0  0  0
  6 40  1  0  0  0  0
  7  8  1  0  0  0  0
  8  9  1  0  0  0  0
  8 41  1  0  0  0  0
  9 10  2  0  0  0  0
  9 11  1  0  0  0  0
 11 12  1  0  0  0  0
 11 42  1  0  0  0  0
 11 43  1  0  0  0  0
 12 13  1  0  0  0  0
 12 44  1  0  0  0  0
 12 45  1  0  0  0  0
 13 14  1  0  0  0  0
 14 15  2  0  0  0  0
 14 33  1  0  0  0  0
 15 16  1  0  0  0  0
 16 17  2  0  0  0  0
 17 18  1  0  0  0  0
 17 33  1  0  0  0  0
 18 19  1  0  0  0  0
 18 46  1  0  0  0  0
 18 47  1  0  0  0  0
 19 20  2  0  0  0  0
 19 32  1  0  0  0  0
 20 21  1  0  0  0  0
 20 48  1  0  0  0  0
 21 22  1  0  0  0  0
 22 23  1  0  0  0  0
 22 32  2  0  0  0  0
 23 24  1  0  0  0  0
 23 49  1  0  0  0  0
 24 25  2  0  0  0  0
 24 26  1  0  0  0  0
 26 27  1  0  0  0  0
 26 31  2  0  0  0  0
 27 28  2  0  0  0  0
 27 50  1  0  0  0  0
 28 29  1  0  0  0  0
 28 51  1  0  0  0  0
 29 30  2  0  0  0  0
 29 52  1  0  0  0  0
 30 31  1  0  0  0  0
 30 53  1  0  0  0  0
 31 54  1  0  0  0  0
M  END
>  <Line_Number>
137


> <IC50>
7470

$$$$
