CHEMBL4127682
 OpenBabel09092522103D

 57 60  0  0  0  0  0  0  0  0999 V2000
    5.7172  -11.3826   -3.4621 C   0  0  0  0  0  0  0  0  0  0  0  0
    4.2186  -11.4906   -3.3274 C   0  0  0  0  0  0  0  0  0  0  0  0
    3.6069  -12.6215   -3.8830 C   0  0  0  0  0  0  0  0  0  0  0  0
    2.2387  -12.7896   -3.7807 C   0  0  0  0  0  0  0  0  0  0  0  0
    1.4688  -11.8353   -3.1250 C   0  0  0  0  0  0  0  0  0  0  0  0
    2.0234  -10.6760   -2.5541 C   0  0  0  0  0  0  0  0  0  0  0  0
    1.1844   -9.7172   -1.8870 N   0  0  0  0  0  0  0  0  0  0  0  0
   -0.2005   -9.8006   -1.7325 C   0  0  0  0  0  0  0  0  0  0  0  0
   -0.9149  -10.7078   -2.1472 O   0  0  0  0  0  0  0  0  0  0  0  0
   -0.8381   -8.6307   -0.9870 C   0  0  0  0  0  0  0  0  0  0  0  0
   -2.3586   -8.8556   -0.8848 C   0  0  0  0  0  0  0  0  0  0  0  0
   -3.2240   -7.4808   -0.0504 S   0  0  0  0  0  0  0  0  0  0  0  0
   -4.8707   -8.0678   -0.0791 C   0  0  0  0  0  0  0  0  0  0  0  0
   -5.2099   -9.3415   -0.0870 N   0  0  0  0  0  0  0  0  0  0  0  0
   -6.5854   -9.3980   -0.1124 N   0  0  0  0  0  0  0  0  0  0  0  0
   -7.0083   -8.1474   -0.1187 C   0  0  0  0  0  0  0  0  0  0  0  0
   -8.4075   -7.6483   -0.1307 C   0  0  0  0  0  0  0  0  0  0  0  0
   -8.9525   -7.4435   -1.5105 C   0  0  0  0  0  0  0  0  0  0  0  0
   -9.0997   -8.3734   -2.5278 C   0  0  0  0  0  0  0  0  0  0  0  0
   -9.7897   -7.6225   -3.9155 S   0  0  0  0  0  0  0  0  0  0  0  0
   -9.9166   -6.1701   -3.0368 C   0  0  0  0  0  0  0  0  0  0  0  0
  -10.5149   -5.1326   -3.6913 N   0  0  0  0  0  0  0  0  0  0  0  0
  -10.9474   -4.0222   -2.9952 C   0  0  0  0  0  0  0  0  0  0  0  0
  -10.8785   -3.8524   -1.7823 O   0  0  0  0  0  0  0  0  0  0  0  0
  -11.5771   -2.9456   -3.8035 C   0  0  0  0  0  0  0  0  0  0  0  0
  -12.2308   -3.1898   -5.0172 C   0  0  0  0  0  0  0  0  0  0  0  0
  -12.8349   -2.1345   -5.7056 C   0  0  0  0  0  0  0  0  0  0  0  0
  -12.7969   -0.8418   -5.1830 C   0  0  0  0  0  0  0  0  0  0  0  0
  -12.1578   -0.5950   -3.9701 C   0  0  0  0  0  0  0  0  0  0  0  0
  -11.5508   -1.6439   -3.2810 C   0  0  0  0  0  0  0  0  0  0  0  0
   -9.4452   -6.1899   -1.8182 N   0  0  0  0  0  0  0  0  0  0  0  0
   -5.9746   -7.2420   -0.0803 O   0  0  0  0  0  0  0  0  0  0  0  0
    3.4320  -10.4963   -2.6618 C   0  0  0  0  0  0  0  0  0  0  0  0
    4.1644   -9.2977   -2.1104 C   0  0  0  0  0  0  0  0  0  0  0  0
    6.1350  -12.2483   -3.9906 H   0  0  0  0  0  0  0  0  0  0  0  0
    6.1914  -11.3525   -2.4756 H   0  0  0  0  0  0  0  0  0  0  0  0
    5.9911  -10.4924   -4.0368 H   0  0  0  0  0  0  0  0  0  0  0  0
    4.1930  -13.3810   -4.3949 H   0  0  0  0  0  0  0  0  0  0  0  0
    1.7598  -13.6679   -4.2053 H   0  0  0  0  0  0  0  0  0  0  0  0
    0.4076  -12.0505   -3.0829 H   0  0  0  0  0  0  0  0  0  0  0  0
    1.6359   -8.9083   -1.4903 H   0  0  0  0  0  0  0  0  0  0  0  0
   -0.6208   -7.7067   -1.5425 H   0  0  0  0  0  0  0  0  0  0  0  0
   -0.3879   -8.5660    0.0096 H   0  0  0  0  0  0  0  0  0  0  0  0
   -2.5563   -9.7886   -0.3433 H   0  0  0  0  0  0  0  0  0  0  0  0
   -2.7868   -8.9612   -1.8890 H   0  0  0  0  0  0  0  0  0  0  0  0
   -8.4783   -6.7162    0.4358 H   0  0  0  0  0  0  0  0  0  0  0  0
   -9.0518   -8.3731    0.3851 H   0  0  0  0  0  0  0  0  0  0  0  0
   -8.8366   -9.4220   -2.5288 H   0  0  0  0  0  0  0  0  0  0  0  0
  -10.6540   -5.2409   -4.6831 H   0  0  0  0  0  0  0  0  0  0  0  0
  -12.3206   -4.1896   -5.4280 H   0  0  0  0  0  0  0  0  0  0  0  0
  -13.3508   -2.3243   -6.6437 H   0  0  0  0  0  0  0  0  0  0  0  0
  -13.2793   -0.0259   -5.7175 H   0  0  0  0  0  0  0  0  0  0  0  0
  -12.1403    0.4087   -3.5528 H   0  0  0  0  0  0  0  0  0  0  0  0
  -11.0645   -1.4469   -2.3270 H   0  0  0  0  0  0  0  0  0  0  0  0
    3.5227   -8.5639   -1.6240 H   0  0  0  0  0  0  0  0  0  0  0  0
    4.6832   -8.7741   -2.9221 H   0  0  0  0  0  0  0  0  0  0  0  0
    4.9033   -9.6187   -1.3675 H   0  0  0  0  0  0  0  0  0  0  0  0
  1  2  1  0  0  0  0
  1 35  1  0  0  0  0
  1 36  1  0  0  0  0
  1 37  1  0  0  0  0
  2  3  1  0  0  0  0
  2 33  2  0  0  0  0
  3  4  2  0  0  0  0
  3 38  1  0  0  0  0
  4  5  1  0  0  0  0
  4 39  1  0  0  0  0
  5  6  2  0  0  0  0
  5 40  1  0  0  0  0
  6  7  1  0  0  0  0
  6 33  1  0  0  0  0
  7  8  1  0  0  0  0
  7 41  1  0  0  0  0
  8  9  2  0  0  0  0
  8 10  1  0  0  0  0
 10 11  1  0  0  0  0
 10 42  1  0  0  0  0
 10 43  1  0  0  0  0
 11 12  1  0  0  0  0
 11 44  1  0  0  0  0
 11 45  1  0  0  0  0
 12 13  1  0  0  0  0
 13 14  2  0  0  0  0
 13 32  1  0  0  0  0
 14 15  1  0  0  0  0
 15 16  2  0  0  0  0
 16 17  1  0  0  0  0
 16 32  1  0  0  0  0
 17 18  1  0  0  0  0
 17 46  1  0  0  0  0
 17 47  1  0  0  0  0
 18 19  2  0  0  0  0
 18 31  1  0  0  0  0
 19 20  1  0  0  0  0
 19 48  1  0  0  0  0
 20 21  1  0  0  0  0
 21 22  1  0  0  0  0
 21 31  2  0  0  0  0
 22 23  1  0  0  0  0
 22 49  1  0  0  0  0
 23 24  2  0  0  0  0
 23 25  1  0  0  0  0
 25 26  1  0  0  0  0
 25 30  2  0  0  0  0
 26 27  2  0  0  0  0
 26 50  1  0  0  0  0
 27 28  1  0  0  0  0
 27 51  1  0  0  0  0
 28 29  2  0  0  0  0
 28 52  1  0  0  0  0
 29 30  1  0  0  0  0
 29 53  1  0  0  0  0
 30 54  1  0  0  0  0
 33 34  1  0  0  0  0
 34 55  1  0  0  0  0
 34 56  1  0  0  0  0
 34 57  1  0  0  0  0
M  END
>  <Line_Number>
139


> <IC50>
48160

$$$$
