CHEMBL4130000
 OpenBabel09092522103D

 51 54  0  0  0  0  0  0  0  0999 V2000
    3.2485   -4.1661    1.3319 O   0  0  0  0  0  0  0  0  0  0  0  0
    3.9922   -3.2206    1.0906 C   0  0  0  0  0  0  0  0  0  0  0  0
    4.0247   -1.9967    1.9921 C   0  0  0  0  0  0  0  0  0  0  0  0
    2.9926   -2.0903    3.1199 C   0  0  0  0  0  0  0  0  0  0  0  0
    3.0298   -0.5454    4.0864 S   0  0  0  0  0  0  0  0  0  0  0  0
    1.8572   -0.8635    5.3288 C   0  0  0  0  0  0  0  0  0  0  0  0
    1.4881   -2.0555    5.7529 N   0  0  0  0  0  0  0  0  0  0  0  0
    0.5759   -1.8535    6.7725 N   0  0  0  0  0  0  0  0  0  0  0  0
    0.4483   -0.5485    6.9020 C   0  0  0  0  0  0  0  0  0  0  0  0
   -0.4092    0.2306    7.8277 C   0  0  0  0  0  0  0  0  0  0  0  0
    0.3056    0.6227    9.0839 C   0  0  0  0  0  0  0  0  0  0  0  0
    0.8638   -0.2024   10.0465 C   0  0  0  0  0  0  0  0  0  0  0  0
    1.6446    0.7475   11.2526 S   0  0  0  0  0  0  0  0  0  0  0  0
    1.0979    2.1571   10.4660 C   0  0  0  0  0  0  0  0  0  0  0  0
    1.4345    3.3427   11.0653 N   0  0  0  0  0  0  0  0  0  0  0  0
    0.8094    4.5083   10.6796 C   0  0  0  0  0  0  0  0  0  0  0  0
   -0.1198    4.6047    9.8835 O   0  0  0  0  0  0  0  0  0  0  0  0
    1.2621    5.7611   11.3443 C   0  0  0  0  0  0  0  0  0  0  0  0
    2.5797    5.9627   11.7684 C   0  0  0  0  0  0  0  0  0  0  0  0
    2.9531    7.2006   12.3020 C   0  0  0  0  0  0  0  0  0  0  0  0
    2.0192    8.2335   12.4118 C   0  0  0  0  0  0  0  0  0  0  0  0
    0.7051    8.0339   11.9978 C   0  0  0  0  0  0  0  0  0  0  0  0
    0.3285    6.8025   11.4654 C   0  0  0  0  0  0  0  0  0  0  0  0
    0.4211    1.9727    9.3643 N   0  0  0  0  0  0  0  0  0  0  0  0
    1.2314    0.1461    6.0166 O   0  0  0  0  0  0  0  0  0  0  0  0
    4.8680   -3.1153    0.0185 N   0  0  0  0  0  0  0  0  0  0  0  0
    5.0487   -4.0550   -1.0283 C   0  0  0  0  0  0  0  0  0  0  0  0
    4.3578   -5.2680   -1.1128 C   0  0  0  0  0  0  0  0  0  0  0  0
    4.6009   -6.1542   -2.1649 C   0  0  0  0  0  0  0  0  0  0  0  0
    5.5290   -5.8363   -3.1505 C   0  0  0  0  0  0  0  0  0  0  0  0
    6.2106   -4.6254   -3.0915 C   0  0  0  0  0  0  0  0  0  0  0  0
    5.9740   -3.7402   -2.0358 C   0  0  0  0  0  0  0  0  0  0  0  0
    3.8277   -1.1170    1.3665 H   0  0  0  0  0  0  0  0  0  0  0  0
    5.0362   -1.9118    2.4093 H   0  0  0  0  0  0  0  0  0  0  0  0
    3.2152   -2.9437    3.7699 H   0  0  0  0  0  0  0  0  0  0  0  0
    1.9868   -2.2308    2.7091 H   0  0  0  0  0  0  0  0  0  0  0  0
   -1.3019   -0.3518    8.0851 H   0  0  0  0  0  0  0  0  0  0  0  0
   -0.7647    1.1328    7.3146 H   0  0  0  0  0  0  0  0  0  0  0  0
    0.8793   -1.2834   10.0819 H   0  0  0  0  0  0  0  0  0  0  0  0
    2.0482    3.3035   11.8618 H   0  0  0  0  0  0  0  0  0  0  0  0
    3.3385    5.1944   11.6504 H   0  0  0  0  0  0  0  0  0  0  0  0
    3.9813    7.3735   12.6131 H   0  0  0  0  0  0  0  0  0  0  0  0
    2.3196    9.2016   12.8074 H   0  0  0  0  0  0  0  0  0  0  0  0
   -0.0238    8.8374   12.0705 H   0  0  0  0  0  0  0  0  0  0  0  0
   -0.6966    6.6586   11.1250 H   0  0  0  0  0  0  0  0  0  0  0  0
    5.4414   -2.2783   -0.0223 H   0  0  0  0  0  0  0  0  0  0  0  0
    3.6143   -5.5731   -0.3779 H   0  0  0  0  0  0  0  0  0  0  0  0
    4.0597   -7.0958   -2.2090 H   0  0  0  0  0  0  0  0  0  0  0  0
    5.7162   -6.5320   -3.9658 H   0  0  0  0  0  0  0  0  0  0  0  0
    6.9268   -4.3703   -3.8681 H   0  0  0  0  0  0  0  0  0  0  0  0
    6.5221   -2.8022   -2.0183 H   0  0  0  0  0  0  0  0  0  0  0  0
  1  2  2  0  0  0  0
  2  3  1  0  0  0  0
  2 26  1  0  0  0  0
  3  4  1  0  0  0  0
  3 33  1  0  0  0  0
  3 34  1  0  0  0  0
  4  5  1  0  0  0  0
  4 35  1  0  0  0  0
  4 36  1  0  0  0  0
  5  6  1  0  0  0  0
  6  7  2  0  0  0  0
  6 25  1  0  0  0  0
  7  8  1  0  0  0  0
  8  9  2  0  0  0  0
  9 10  1  0  0  0  0
  9 25  1  0  0  0  0
 10 11  1  0  0  0  0
 10 37  1  0  0  0  0
 10 38  1  0  0  0  0
 11 12  2  0  0  0  0
 11 24  1  0  0  0  0
 12 13  1  0  0  0  0
 12 39  1  0  0  0  0
 13 14  1  0  0  0  0
 14 15  1  0  0  0  0
 14 24  2  0  0  0  0
 15 16  1  0  0  0  0
 15 40  1  0  0  0  0
 16 17  2  0  0  0  0
 16 18  1  0  0  0  0
 18 19  1  0  0  0  0
 18 23  2  0  0  0  0
 19 20  2  0  0  0  0
 19 41  1  0  0  0  0
 20 21  1  0  0  0  0
 20 42  1  0  0  0  0
 21 22  2  0  0  0  0
 21 43  1  0  0  0  0
 22 23  1  0  0  0  0
 22 44  1  0  0  0  0
 23 45  1  0  0  0  0
 26 27  1  0  0  0  0
 26 46  1  0  0  0  0
 27 28  1  0  0  0  0
 27 32  2  0  0  0  0
 28 29  2  0  0  0  0
 28 47  1  0  0  0  0
 29 30  1  0  0  0  0
 29 48  1  0  0  0  0
 30 31  2  0  0  0  0
 30 49  1  0  0  0  0
 31 32  1  0  0  0  0
 31 50  1  0  0  0  0
 32 51  1  0  0  0  0
M  END
>  <Line_Number>
140


> <IC50>
2950

$$$$
