CHEMBL4126307
 OpenBabel09092522103D

 54 57  0  0  0  0  0  0  0  0999 V2000
  -13.7485   -4.8569   -5.3193 C   0  0  0  0  0  0  0  0  0  0  0  0
  -12.7925   -4.0062   -4.5396 C   0  0  0  0  0  0  0  0  0  0  0  0
  -12.9965   -2.6322   -4.4344 C   0  0  0  0  0  0  0  0  0  0  0  0
  -12.1114   -1.8335   -3.7051 C   0  0  0  0  0  0  0  0  0  0  0  0
  -11.0008   -2.3804   -3.0575 C   0  0  0  0  0  0  0  0  0  0  0  0
  -10.0757   -1.6093   -2.3021 N   0  0  0  0  0  0  0  0  0  0  0  0
  -10.1436   -0.2397   -2.0889 C   0  0  0  0  0  0  0  0  0  0  0  0
  -11.0168    0.5049   -2.5182 O   0  0  0  0  0  0  0  0  0  0  0  0
   -9.0033    0.3167   -1.2467 C   0  0  0  0  0  0  0  0  0  0  0  0
   -9.2114    1.8259   -1.0867 C   0  0  0  0  0  0  0  0  0  0  0  0
   -7.8740    2.6196   -0.1480 S   0  0  0  0  0  0  0  0  0  0  0  0
   -8.4632    4.2603   -0.1325 C   0  0  0  0  0  0  0  0  0  0  0  0
   -9.7322    4.6126   -0.1975 N   0  0  0  0  0  0  0  0  0  0  0  0
   -9.7723    5.9925   -0.1524 N   0  0  0  0  0  0  0  0  0  0  0  0
   -8.5217    6.3955   -0.0591 C   0  0  0  0  0  0  0  0  0  0  0  0
   -7.9799    7.7779   -0.0708 C   0  0  0  0  0  0  0  0  0  0  0  0
   -7.8518    8.3987    1.2873 C   0  0  0  0  0  0  0  0  0  0  0  0
   -8.8520    8.6363    2.2157 C   0  0  0  0  0  0  0  0  0  0  0  0
   -8.2067    9.4647    3.5798 S   0  0  0  0  0  0  0  0  0  0  0  0
   -6.6626    9.4193    2.8549 C   0  0  0  0  0  0  0  0  0  0  0  0
   -5.6546    9.9751    3.6016 N   0  0  0  0  0  0  0  0  0  0  0  0
   -4.3379    9.8763    3.1988 C   0  0  0  0  0  0  0  0  0  0  0  0
   -3.9458    9.2921    2.1925 O   0  0  0  0  0  0  0  0  0  0  0  0
   -3.2967   10.5022    4.0801 C   0  0  0  0  0  0  0  0  0  0  0  0
   -3.5770   11.3467    5.1632 C   0  0  0  0  0  0  0  0  0  0  0  0
   -2.5289   11.8882    5.9220 C   0  0  0  0  0  0  0  0  0  0  0  0
   -1.2033   11.5969    5.6047 C   0  0  0  0  0  0  0  0  0  0  0  0
   -0.9128   10.7657    4.5299 C   0  0  0  0  0  0  0  0  0  0  0  0
   -1.9518   10.2239    3.7746 C   0  0  0  0  0  0  0  0  0  0  0  0
   -6.6038    8.8654    1.6725 N   0  0  0  0  0  0  0  0  0  0  0  0
   -7.6322    5.3508   -0.0390 O   0  0  0  0  0  0  0  0  0  0  0  0
  -10.7934   -3.7617   -3.1633 C   0  0  0  0  0  0  0  0  0  0  0  0
  -11.6825   -4.5667   -3.8981 C   0  0  0  0  0  0  0  0  0  0  0  0
  -14.5419   -4.2506   -5.7720 H   0  0  0  0  0  0  0  0  0  0  0  0
  -14.2272   -5.5916   -4.6645 H   0  0  0  0  0  0  0  0  0  0  0  0
  -13.2271   -5.3748   -6.1302 H   0  0  0  0  0  0  0  0  0  0  0  0
  -13.8466   -2.1566   -4.9175 H   0  0  0  0  0  0  0  0  0  0  0  0
  -12.3337   -0.7735   -3.6684 H   0  0  0  0  0  0  0  0  0  0  0  0
   -9.3039   -2.1124   -1.8812 H   0  0  0  0  0  0  0  0  0  0  0  0
   -8.0569    0.1013   -1.7554 H   0  0  0  0  0  0  0  0  0  0  0  0
   -9.0105   -0.1827   -0.2713 H   0  0  0  0  0  0  0  0  0  0  0  0
  -10.1643    2.0119   -0.5776 H   0  0  0  0  0  0  0  0  0  0  0  0
   -9.2607    2.3030   -2.0731 H   0  0  0  0  0  0  0  0  0  0  0  0
   -8.6337    8.4134   -0.6814 H   0  0  0  0  0  0  0  0  0  0  0  0
   -7.0017    7.7802   -0.5672 H   0  0  0  0  0  0  0  0  0  0  0  0
   -9.9018    8.3828    2.1566 H   0  0  0  0  0  0  0  0  0  0  0  0
   -5.9248   10.3771    4.4825 H   0  0  0  0  0  0  0  0  0  0  0  0
   -4.5894   11.6202    5.4375 H   0  0  0  0  0  0  0  0  0  0  0  0
   -2.7467   12.5448    6.7613 H   0  0  0  0  0  0  0  0  0  0  0  0
   -0.3907   12.0188    6.1899 H   0  0  0  0  0  0  0  0  0  0  0  0
    0.1198   10.5414    4.2771 H   0  0  0  0  0  0  0  0  0  0  0  0
   -1.7042    9.5789    2.9328 H   0  0  0  0  0  0  0  0  0  0  0  0
   -9.9460   -4.2406   -2.6816 H   0  0  0  0  0  0  0  0  0  0  0  0
  -11.5063   -5.6376   -3.9683 H   0  0  0  0  0  0  0  0  0  0  0  0
  1  2  1  0  0  0  0
  1 34  1  0  0  0  0
  1 35  1  0  0  0  0
  1 36  1  0  0  0  0
  2  3  1  0  0  0  0
  2 33  2  0  0  0  0
  3  4  2  0  0  0  0
  3 37  1  0  0  0  0
  4  5  1  0  0  0  0
  4 38  1  0  0  0  0
  5  6  1  0  0  0  0
  5 32  2  0  0  0  0
  6  7  1  0  0  0  0
  6 39  1  0  0  0  0
  7  8  2  0  0  0  0
  7  9  1  0  0  0  0
  9 10  1  0  0  0  0
  9 40  1  0  0  0  0
  9 41  1  0  0  0  0
 10 11  1  0  0  0  0
 10 42  1  0  0  0  0
 10 43  1  0  0  0  0
 11 12  1  0  0  0  0
 12 13  2  0  0  0  0
 12 31  1  0  0  0  0
 13 14  1  0  0  0  0
 14 15  2  0  0  0  0
 15 16  1  0  0  0  0
 15 31  1  0  0  0  0
 16 17  1  0  0  0  0
 16 44  1  0  0  0  0
 16 45  1  0  0  0  0
 17 18  2  0  0  0  0
 17 30  1  0  0  0  0
 18 19  1  0  0  0  0
 18 46  1  0  0  0  0
 19 20  1  0  0  0  0
 20 21  1  0  0  0  0
 20 30  2  0  0  0  0
 21 22  1  0  0  0  0
 21 47  1  0  0  0  0
 22 23  2  0  0  0  0
 22 24  1  0  0  0  0
 24 25  1  0  0  0  0
 24 29  2  0  0  0  0
 25 26  2  0  0  0  0
 25 48  1  0  0  0  0
 26 27  1  0  0  0  0
 26 49  1  0  0  0  0
 27 28  2  0  0  0  0
 27 50  1  0  0  0  0
 28 29  1  0  0  0  0
 28 51  1  0  0  0  0
 29 52  1  0  0  0  0
 32 33  1  0  0  0  0
 32 53  1  0  0  0  0
 33 54  1  0  0  0  0
M  END
>  <Line_Number>
141


> <IC50>
29180

$$$$
