CHEMBL4127102
 OpenBabel09092522103D

 58 61  0  0  0  0  0  0  0  0999 V2000
    0.9771    0.3622   -0.2017 C   0  0  0  0  0  0  0  0  0  0  0  0
    2.4576    0.4230   -0.5197 C   0  0  0  0  0  0  0  0  0  0  0  0
    3.0843    1.4577    0.2461 O   0  0  0  0  0  0  0  0  0  0  0  0
    4.4362    1.5975    0.0588 C   0  0  0  0  0  0  0  0  0  0  0  0
    5.1984    0.8400   -0.8227 C   0  0  0  0  0  0  0  0  0  0  0  0
    6.5732    1.0459   -0.9328 C   0  0  0  0  0  0  0  0  0  0  0  0
    7.2313    2.0101   -0.1704 C   0  0  0  0  0  0  0  0  0  0  0  0
    8.6336    2.2248   -0.2477 N   0  0  0  0  0  0  0  0  0  0  0  0
    9.5154    1.5075   -1.0478 C   0  0  0  0  0  0  0  0  0  0  0  0
    9.1936    0.6007   -1.8118 O   0  0  0  0  0  0  0  0  0  0  0  0
   10.9742    1.9149   -0.9178 C   0  0  0  0  0  0  0  0  0  0  0  0
   11.7979    1.0411   -1.8714 C   0  0  0  0  0  0  0  0  0  0  0  0
   13.5853    1.3645   -1.7947 S   0  0  0  0  0  0  0  0  0  0  0  0
   14.1277    0.2301   -3.0070 C   0  0  0  0  0  0  0  0  0  0  0  0
   13.3819   -0.2290   -3.9931 N   0  0  0  0  0  0  0  0  0  0  0  0
   14.1660   -1.0957   -4.7240 N   0  0  0  0  0  0  0  0  0  0  0  0
   15.3420   -1.1129   -4.1325 C   0  0  0  0  0  0  0  0  0  0  0  0
   16.5740   -1.8323   -4.5309 C   0  0  0  0  0  0  0  0  0  0  0  0
   16.6927   -3.2020   -3.9378 C   0  0  0  0  0  0  0  0  0  0  0  0
   15.8645   -4.2963   -4.1269 C   0  0  0  0  0  0  0  0  0  0  0  0
   16.5198   -5.6752   -3.3265 S   0  0  0  0  0  0  0  0  0  0  0  0
   17.7963   -4.7061   -2.7469 C   0  0  0  0  0  0  0  0  0  0  0  0
   18.7072   -5.3365   -1.9401 N   0  0  0  0  0  0  0  0  0  0  0  0
   19.6199   -4.5934   -1.2208 C   0  0  0  0  0  0  0  0  0  0  0  0
   19.6639   -3.3690   -1.1492 O   0  0  0  0  0  0  0  0  0  0  0  0
   20.6073   -5.3554   -0.4071 C   0  0  0  0  0  0  0  0  0  0  0  0
   21.1062   -6.6066   -0.7878 C   0  0  0  0  0  0  0  0  0  0  0  0
   22.0965   -7.2235   -0.0138 C   0  0  0  0  0  0  0  0  0  0  0  0
   22.5882   -6.5986    1.1342 C   0  0  0  0  0  0  0  0  0  0  0  0
   22.0920   -5.3546    1.5166 C   0  0  0  0  0  0  0  0  0  0  0  0
   21.1063   -4.7355    0.7485 C   0  0  0  0  0  0  0  0  0  0  0  0
   17.7933   -3.4606   -3.1404 N   0  0  0  0  0  0  0  0  0  0  0  0
   15.3993   -0.2841   -3.0410 O   0  0  0  0  0  0  0  0  0  0  0  0
    6.4645    2.7915    0.7042 C   0  0  0  0  0  0  0  0  0  0  0  0
    5.0780    2.5792    0.8184 C   0  0  0  0  0  0  0  0  0  0  0  0
    0.5024   -0.4512   -0.7604 H   0  0  0  0  0  0  0  0  0  0  0  0
    0.4863    1.3028   -0.4681 H   0  0  0  0  0  0  0  0  0  0  0  0
    0.8146    0.1969    0.8674 H   0  0  0  0  0  0  0  0  0  0  0  0
    2.5742    0.6252   -1.5915 H   0  0  0  0  0  0  0  0  0  0  0  0
    2.9034   -0.5491   -0.2733 H   0  0  0  0  0  0  0  0  0  0  0  0
    4.7663    0.0714   -1.4529 H   0  0  0  0  0  0  0  0  0  0  0  0
    7.0906    0.4089   -1.6416 H   0  0  0  0  0  0  0  0  0  0  0  0
    9.0208    2.9505    0.3439 H   0  0  0  0  0  0  0  0  0  0  0  0
   11.2882    1.7667    0.1211 H   0  0  0  0  0  0  0  0  0  0  0  0
   11.0706    2.9747   -1.1787 H   0  0  0  0  0  0  0  0  0  0  0  0
   11.4548    1.2042   -2.9001 H   0  0  0  0  0  0  0  0  0  0  0  0
   11.6415   -0.0179   -1.6319 H   0  0  0  0  0  0  0  0  0  0  0  0
   17.4505   -1.2353   -4.2501 H   0  0  0  0  0  0  0  0  0  0  0  0
   16.6024   -1.9223   -5.6238 H   0  0  0  0  0  0  0  0  0  0  0  0
   14.9469   -4.3594   -4.6964 H   0  0  0  0  0  0  0  0  0  0  0  0
   18.6008   -6.3289   -1.8048 H   0  0  0  0  0  0  0  0  0  0  0  0
   20.7770   -7.0947   -1.6997 H   0  0  0  0  0  0  0  0  0  0  0  0
   22.5063   -8.1849   -0.3148 H   0  0  0  0  0  0  0  0  0  0  0  0
   23.3682   -7.0770    1.7231 H   0  0  0  0  0  0  0  0  0  0  0  0
   22.4782   -4.8531    2.4008 H   0  0  0  0  0  0  0  0  0  0  0  0
   20.7356   -3.7541    1.0424 H   0  0  0  0  0  0  0  0  0  0  0  0
    6.9228    3.5651    1.3137 H   0  0  0  0  0  0  0  0  0  0  0  0
    4.4949    3.1877    1.5074 H   0  0  0  0  0  0  0  0  0  0  0  0
  1  2  1  0  0  0  0
  1 36  1  0  0  0  0
  1 37  1  0  0  0  0
  1 38  1  0  0  0  0
  2  3  1  0  0  0  0
  2 39  1  0  0  0  0
  2 40  1  0  0  0  0
  3  4  1  0  0  0  0
  4  5  1  0  0  0  0
  4 35  2  0  0  0  0
  5  6  2  0  0  0  0
  5 41  1  0  0  0  0
  6  7  1  0  0  0  0
  6 42  1  0  0  0  0
  7  8  1  0  0  0  0
  7 34  2  0  0  0  0
  8  9  1  0  0  0  0
  8 43  1  0  0  0  0
  9 10  2  0  0  0  0
  9 11  1  0  0  0  0
 11 12  1  0  0  0  0
 11 44  1  0  0  0  0
 11 45  1  0  0  0  0
 12 13  1  0  0  0  0
 12 46  1  0  0  0  0
 12 47  1  0  0  0  0
 13 14  1  0  0  0  0
 14 15  2  0  0  0  0
 14 33  1  0  0  0  0
 15 16  1  0  0  0  0
 16 17  2  0  0  0  0
 17 18  1  0  0  0  0
 17 33  1  0  0  0  0
 18 19  1  0  0  0  0
 18 48  1  0  0  0  0
 18 49  1  0  0  0  0
 19 20  2  0  0  0  0
 19 32  1  0  0  0  0
 20 21  1  0  0  0  0
 20 50  1  0  0  0  0
 21 22  1  0  0  0  0
 22 23  1  0  0  0  0
 22 32  2  0  0  0  0
 23 24  1  0  0  0  0
 23 51  1  0  0  0  0
 24 25  2  0  0  0  0
 24 26  1  0  0  0  0
 26 27  1  0  0  0  0
 26 31  2  0  0  0  0
 27 28  2  0  0  0  0
 27 52  1  0  0  0  0
 28 29  1  0  0  0  0
 28 53  1  0  0  0  0
 29 30  2  0  0  0  0
 29 54  1  0  0  0  0
 30 31  1  0  0  0  0
 30 55  1  0  0  0  0
 31 56  1  0  0  0  0
 34 35  1  0  0  0  0
 34 57  1  0  0  0  0
 35 58  1  0  0  0  0
M  END
>  <Line_Number>
142


> <IC50>
23240

$$$$
