CHEMBL4127272
 OpenBabel09092522103D

 57 60  0  0  0  0  0  0  0  0999 V2000
   -5.0256  -14.9322    0.0475 C   0  0  0  0  0  0  0  0  0  0  0  0
   -5.2429  -13.8660   -0.9872 C   0  0  0  0  0  0  0  0  0  0  0  0
   -5.5660  -14.2245   -2.2886 C   0  0  0  0  0  0  0  0  0  0  0  0
   -5.7502  -13.2356   -3.2488 C   0  0  0  0  0  0  0  0  0  0  0  0
   -5.6195  -11.8604   -2.9516 C   0  0  0  0  0  0  0  0  0  0  0  0
   -5.9115  -10.9375   -4.0983 C   0  0  0  0  0  0  0  0  0  0  0  0
   -5.2701  -11.4747   -1.6428 C   0  0  0  0  0  0  0  0  0  0  0  0
   -5.0809  -10.1492   -1.1522 N   0  0  0  0  0  0  0  0  0  0  0  0
   -4.7906   -8.9866   -1.8480 C   0  0  0  0  0  0  0  0  0  0  0  0
   -4.5778   -8.8720   -3.0468 O   0  0  0  0  0  0  0  0  0  0  0  0
   -4.7260   -7.7341   -0.9799 C   0  0  0  0  0  0  0  0  0  0  0  0
   -6.1031   -7.0875   -0.9007 C   0  0  0  0  0  0  0  0  0  0  0  0
   -6.0355   -5.4465   -0.0994 S   0  0  0  0  0  0  0  0  0  0  0  0
   -7.7325   -5.0532   -0.1121 C   0  0  0  0  0  0  0  0  0  0  0  0
   -8.6935   -5.9547   -0.1439 N   0  0  0  0  0  0  0  0  0  0  0  0
   -9.8876   -5.2707   -0.1450 N   0  0  0  0  0  0  0  0  0  0  0  0
   -9.5786   -3.9909   -0.1181 C   0  0  0  0  0  0  0  0  0  0  0  0
  -10.4884   -2.8225   -0.0733 C   0  0  0  0  0  0  0  0  0  0  0  0
  -10.9128   -2.3446   -1.4275 C   0  0  0  0  0  0  0  0  0  0  0  0
  -11.6104   -3.0413   -2.4015 C   0  0  0  0  0  0  0  0  0  0  0  0
  -11.9586   -2.0032   -3.7309 S   0  0  0  0  0  0  0  0  0  0  0  0
  -11.1148   -0.7481   -2.9441 C   0  0  0  0  0  0  0  0  0  0  0  0
  -11.0407    0.4344   -3.6309 N   0  0  0  0  0  0  0  0  0  0  0  0
  -10.2008    1.4385   -3.1985 C   0  0  0  0  0  0  0  0  0  0  0  0
   -9.4152    1.3786   -2.2585 O   0  0  0  0  0  0  0  0  0  0  0  0
  -10.2178    2.6963   -3.9923 C   0  0  0  0  0  0  0  0  0  0  0  0
  -11.3750    3.1846   -4.6113 C   0  0  0  0  0  0  0  0  0  0  0  0
  -11.3368    4.4154   -5.2749 C   0  0  0  0  0  0  0  0  0  0  0  0
  -10.1543    5.1556   -5.3229 C   0  0  0  0  0  0  0  0  0  0  0  0
   -9.0007    4.6700   -4.7115 C   0  0  0  0  0  0  0  0  0  0  0  0
   -9.0329    3.4455   -4.0463 C   0  0  0  0  0  0  0  0  0  0  0  0
  -10.6369   -1.0341   -1.7621 N   0  0  0  0  0  0  0  0  0  0  0  0
   -8.2244   -3.7719   -0.0798 O   0  0  0  0  0  0  0  0  0  0  0  0
   -5.1067  -12.4992   -0.6760 C   0  0  0  0  0  0  0  0  0  0  0  0
   -5.2097  -15.9311   -0.3670 H   0  0  0  0  0  0  0  0  0  0  0  0
   -5.7103  -14.7968    0.8895 H   0  0  0  0  0  0  0  0  0  0  0  0
   -3.9917  -14.9108    0.4051 H   0  0  0  0  0  0  0  0  0  0  0  0
   -5.6802  -15.2692   -2.5703 H   0  0  0  0  0  0  0  0  0  0  0  0
   -6.0128  -13.5535   -4.2577 H   0  0  0  0  0  0  0  0  0  0  0  0
   -6.4091  -11.4652   -4.9207 H   0  0  0  0  0  0  0  0  0  0  0  0
   -4.9810  -10.5472   -4.5170 H   0  0  0  0  0  0  0  0  0  0  0  0
   -6.5956  -10.1404   -3.7952 H   0  0  0  0  0  0  0  0  0  0  0  0
   -4.9855  -10.0886   -0.1454 H   0  0  0  0  0  0  0  0  0  0  0  0
   -4.0040   -7.0558   -1.4551 H   0  0  0  0  0  0  0  0  0  0  0  0
   -4.3316   -7.9758    0.0122 H   0  0  0  0  0  0  0  0  0  0  0  0
   -6.7774   -7.7389   -0.3354 H   0  0  0  0  0  0  0  0  0  0  0  0
   -6.5225   -6.9581   -1.9047 H   0  0  0  0  0  0  0  0  0  0  0  0
  -10.0142   -2.0023    0.4786 H   0  0  0  0  0  0  0  0  0  0  0  0
  -11.3878   -3.0947    0.4937 H   0  0  0  0  0  0  0  0  0  0  0  0
  -11.9396   -4.0715   -2.3908 H   0  0  0  0  0  0  0  0  0  0  0  0
  -11.5288    0.4898   -4.5107 H   0  0  0  0  0  0  0  0  0  0  0  0
  -12.3189    2.6525   -4.5490 H   0  0  0  0  0  0  0  0  0  0  0  0
  -12.2376    4.8124   -5.7382 H   0  0  0  0  0  0  0  0  0  0  0  0
  -10.1340    6.1206   -5.8238 H   0  0  0  0  0  0  0  0  0  0  0  0
   -8.0804    5.2482   -4.7357 H   0  0  0  0  0  0  0  0  0  0  0  0
   -8.1339    3.0793   -3.5529 H   0  0  0  0  0  0  0  0  0  0  0  0
   -4.8432  -12.2414    0.3487 H   0  0  0  0  0  0  0  0  0  0  0  0
  1  2  1  0  0  0  0
  1 35  1  0  0  0  0
  1 36  1  0  0  0  0
  1 37  1  0  0  0  0
  2  3  1  0  0  0  0
  2 34  2  0  0  0  0
  3  4  2  0  0  0  0
  3 38  1  0  0  0  0
  4  5  1  0  0  0  0
  4 39  1  0  0  0  0
  5  6  1  0  0  0  0
  5  7  2  0  0  0  0
  6 40  1  0  0  0  0
  6 41  1  0  0  0  0
  6 42  1  0  0  0  0
  7  8  1  0  0  0  0
  7 34  1  0  0  0  0
  8  9  1  0  0  0  0
  8 43  1  0  0  0  0
  9 10  2  0  0  0  0
  9 11  1  0  0  0  0
 11 12  1  0  0  0  0
 11 44  1  0  0  0  0
 11 45  1  0  0  0  0
 12 13  1  0  0  0  0
 12 46  1  0  0  0  0
 12 47  1  0  0  0  0
 13 14  1  0  0  0  0
 14 15  2  0  0  0  0
 14 33  1  0  0  0  0
 15 16  1  0  0  0  0
 16 17  2  0  0  0  0
 17 18  1  0  0  0  0
 17 33  1  0  0  0  0
 18 19  1  0  0  0  0
 18 48  1  0  0  0  0
 18 49  1  0  0  0  0
 19 20  2  0  0  0  0
 19 32  1  0  0  0  0
 20 21  1  0  0  0  0
 20 50  1  0  0  0  0
 21 22  1  0  0  0  0
 22 23  1  0  0  0  0
 22 32  2  0  0  0  0
 23 24  1  0  0  0  0
 23 51  1  0  0  0  0
 24 25  2  0  0  0  0
 24 26  1  0  0  0  0
 26 27  1  0  0  0  0
 26 31  2  0  0  0  0
 27 28  2  0  0  0  0
 27 52  1  0  0  0  0
 28 29  1  0  0  0  0
 28 53  1  0  0  0  0
 29 30  2  0  0  0  0
 29 54  1  0  0  0  0
 30 31  1  0  0  0  0
 30 55  1  0  0  0  0
 31 56  1  0  0  0  0
 34 57  1  0  0  0  0
M  END
>  <Line_Number>
143


> <IC50>
15250

$$$$
