CHEMBL4286810
 OpenBabel09092522103D

 44 46  0  0  0  0  0  0  0  0999 V2000
    1.1818    0.0953   -1.2288 C   0  0  0  0  0  0  0  0  0  0  0  0
    2.3959    0.5351   -0.4558 C   0  0  0  0  0  0  0  0  0  0  0  0
    2.2360    0.6797    1.0333 C   0  0  0  0  0  0  0  0  0  0  0  0
    3.5574    0.7920   -1.0936 C   0  0  0  0  0  0  0  0  0  0  0  0
    4.8422    1.2446   -0.4544 C   0  0  0  0  0  0  0  0  0  0  0  0
    5.2654    2.4922   -1.0429 N   0  0  0  0  0  0  0  0  0  0  0  0
    4.8084    3.7267   -0.6132 C   0  0  0  0  0  0  0  0  0  0  0  0
    4.0380    3.9859    0.2866 O   0  0  0  0  0  0  0  0  0  0  0  0
    5.5264    4.7625   -1.5015 C   0  0  0  0  0  0  0  0  0  0  0  0
    5.3553    6.0332   -1.3020 N   0  0  0  0  0  0  0  0  0  0  0  0
    6.0698    6.9471   -2.0117 N   0  0  0  0  0  0  0  0  0  0  0  0
    5.8325    8.3022   -1.8350 C   0  0  0  0  0  0  0  0  0  0  0  0
    5.0308    8.8032   -1.0564 O   0  0  0  0  0  0  0  0  0  0  0  0
    6.6717    9.1987   -2.6858 C   0  0  0  0  0  0  0  0  0  0  0  0
    7.0787    8.8178   -3.9750 C   0  0  0  0  0  0  0  0  0  0  0  0
    7.8316    9.6963   -4.7580 C   0  0  0  0  0  0  0  0  0  0  0  0
    8.1647   10.9506   -4.2581 C   0  0  0  0  0  0  0  0  0  0  0  0
    8.8753   11.7934   -5.0184 F   0  0  0  0  0  0  0  0  0  0  0  0
    7.7593   11.3463   -2.9884 C   0  0  0  0  0  0  0  0  0  0  0  0
    7.0068   10.4714   -2.2010 C   0  0  0  0  0  0  0  0  0  0  0  0
    6.3436    3.9832   -2.4470 C   0  0  0  0  0  0  0  0  0  0  0  0
    7.1495    4.3491   -3.5144 C   0  0  0  0  0  0  0  0  0  0  0  0
    7.8544    3.3464   -4.1865 C   0  0  0  0  0  0  0  0  0  0  0  0
    7.7225    2.0027   -3.8092 C   0  0  0  0  0  0  0  0  0  0  0  0
    6.8633    1.6353   -2.7706 C   0  0  0  0  0  0  0  0  0  0  0  0
    6.1756    2.6362   -2.1007 C   0  0  0  0  0  0  0  0  0  0  0  0
    0.3185   -0.0703   -0.5762 H   0  0  0  0  0  0  0  0  0  0  0  0
    1.3777   -0.8455   -1.7526 H   0  0  0  0  0  0  0  0  0  0  0  0
    0.8938    0.8581   -1.9602 H   0  0  0  0  0  0  0  0  0  0  0  0
    1.2205    0.4384    1.3626 H   0  0  0  0  0  0  0  0  0  0  0  0
    2.4407    1.7082    1.3470 H   0  0  0  0  0  0  0  0  0  0  0  0
    2.9152    0.0002    1.5591 H   0  0  0  0  0  0  0  0  0  0  0  0
    3.5924    0.6615   -2.1749 H   0  0  0  0  0  0  0  0  0  0  0  0
    5.6122    0.4786   -0.5865 H   0  0  0  0  0  0  0  0  0  0  0  0
    4.7288    1.4009    0.6227 H   0  0  0  0  0  0  0  0  0  0  0  0
    6.9382    6.6614   -2.4354 H   0  0  0  0  0  0  0  0  0  0  0  0
    6.7811    7.8639   -4.4001 H   0  0  0  0  0  0  0  0  0  0  0  0
    8.1430    9.4218   -5.7614 H   0  0  0  0  0  0  0  0  0  0  0  0
    8.0178   12.3363   -2.6245 H   0  0  0  0  0  0  0  0  0  0  0  0
    6.6735   10.7841   -1.2126 H   0  0  0  0  0  0  0  0  0  0  0  0
    7.2460    5.3671   -3.8617 H   0  0  0  0  0  0  0  0  0  0  0  0
    8.5112    3.6083   -5.0146 H   0  0  0  0  0  0  0  0  0  0  0  0
    8.2876    1.2383   -4.3392 H   0  0  0  0  0  0  0  0  0  0  0  0
    6.7596    0.5881   -2.5088 H   0  0  0  0  0  0  0  0  0  0  0  0
  1  2  1  0  0  0  0
  1 27  1  0  0  0  0
  1 28  1  0  0  0  0
  1 29  1  0  0  0  0
  2  3  1  0  0  0  0
  2  4  2  0  0  0  0
  3 30  1  0  0  0  0
  3 31  1  0  0  0  0
  3 32  1  0  0  0  0
  4  5  1  0  0  0  0
  4 33  1  0  0  0  0
  5  6  1  0  0  0  0
  5 34  1  0  0  0  0
  5 35  1  0  0  0  0
  6  7  1  0  0  0  0
  6 26  1  0  0  0  0
  7  8  2  0  0  0  0
  7  9  1  0  0  0  0
  9 10  2  0  0  0  0
  9 21  1  0  0  0  0
 10 11  1  0  0  0  0
 11 12  1  0  0  0  0
 11 36  1  0  0  0  0
 12 13  2  0  0  0  0
 12 14  1  0  0  0  0
 14 15  1  0  0  0  0
 14 20  2  0  0  0  0
 15 16  2  0  0  0  0
 15 37  1  0  0  0  0
 16 17  1  0  0  0  0
 16 38  1  0  0  0  0
 17 18  1  0  0  0  0
 17 19  2  0  0  0  0
 19 20  1  0  0  0  0
 19 39  1  0  0  0  0
 20 40  1  0  0  0  0
 21 22  1  0  0  0  0
 21 26  2  0  0  0  0
 22 23  2  0  0  0  0
 22 41  1  0  0  0  0
 23 24  1  0  0  0  0
 23 42  1  0  0  0  0
 24 25  2  0  0  0  0
 24 43  1  0  0  0  0
 25 26  1  0  0  0  0
 25 44  1  0  0  0  0
M  END
>  <Line_Number>
147


> <IC50>
154000

$$$$
