49844402.0
 OpenBabel09092522103D

 31 32  0  0  0  0  0  0  0  0999 V2000
    2.0874    1.3622    0.3696 O   0  0  0  0  0  0  0  0  0  0  0  0
    1.0121    0.5286    0.2720 C   0  0  0  0  0  0  0  0  0  0  0  0
    0.0379    0.5101    1.2616 C   0  0  0  0  0  0  0  0  0  0  0  0
   -1.0539   -0.3591    1.1460 C   0  0  0  0  0  0  0  0  0  0  0  0
   -1.2101   -1.2182    0.0361 C   0  0  0  0  0  0  0  0  0  0  0  0
   -2.4274   -2.1256    0.0087 C   0  0  0  0  0  0  0  0  0  0  0  0
   -3.7612   -1.3531    0.0212 C   0  0  0  0  0  0  0  0  0  0  0  0
   -5.0454   -2.1592    0.0520 C   0  0  0  0  0  0  0  0  0  0  0  0
   -5.0970   -3.5588    0.0858 C   0  0  0  0  0  0  0  0  0  0  0  0
   -6.3263   -4.2289    0.1039 C   0  0  0  0  0  0  0  0  0  0  0  0
   -7.5220   -3.5120    0.0942 C   0  0  0  0  0  0  0  0  0  0  0  0
   -7.4840   -2.1223    0.0728 C   0  0  0  0  0  0  0  0  0  0  0  0
   -9.0981   -1.1377    0.0637 Br  0  0  0  0  0  0  0  0  0  0  0  0
   -6.2612   -1.4491    0.0539 C   0  0  0  0  0  0  0  0  0  0  0  0
   -0.2065   -1.1877   -0.9452 C   0  0  0  0  0  0  0  0  0  0  0  0
   -0.1968   -1.9743   -2.0678 O   0  0  0  0  0  0  0  0  0  0  0  0
    0.8879   -0.3184   -0.8237 C   0  0  0  0  0  0  0  0  0  0  0  0
    1.8498   -0.3231   -1.8018 O   0  0  0  0  0  0  0  0  0  0  0  0
    2.0159    1.8820    1.1845 H   0  0  0  0  0  0  0  0  0  0  0  0
    0.1086    1.1570    2.1311 H   0  0  0  0  0  0  0  0  0  0  0  0
   -1.7902   -0.3614    1.9467 H   0  0  0  0  0  0  0  0  0  0  0  0
   -2.3654   -2.7826    0.8862 H   0  0  0  0  0  0  0  0  0  0  0  0
   -2.4110   -2.7861   -0.8628 H   0  0  0  0  0  0  0  0  0  0  0  0
   -3.7937   -0.7075   -0.8668 H   0  0  0  0  0  0  0  0  0  0  0  0
   -3.7896   -0.6913    0.8959 H   0  0  0  0  0  0  0  0  0  0  0  0
   -4.1909   -4.1585    0.0991 H   0  0  0  0  0  0  0  0  0  0  0  0
   -6.3518   -5.3161    0.1246 H   0  0  0  0  0  0  0  0  0  0  0  0
   -8.4706   -4.0425    0.1039 H   0  0  0  0  0  0  0  0  0  0  0  0
   -6.2489   -0.3608    0.0403 H   0  0  0  0  0  0  0  0  0  0  0  0
   -0.8789   -2.6584   -1.9988 H   0  0  0  0  0  0  0  0  0  0  0  0
    1.5412   -0.9894   -2.4437 H   0  0  0  0  0  0  0  0  0  0  0  0
  1  2  1  0  0  0  0
  1 19  1  0  0  0  0
  2  3  1  0  0  0  0
  2 17  2  0  0  0  0
  3  4  2  0  0  0  0
  3 20  1  0  0  0  0
  4  5  1  0  0  0  0
  4 21  1  0  0  0  0
  5  6  1  0  0  0  0
  5 15  2  0  0  0  0
  6  7  1  0  0  0  0
  6 22  1  0  0  0  0
  6 23  1  0  0  0  0
  7  8  1  0  0  0  0
  7 24  1  0  0  0  0
  7 25  1  0  0  0  0
  8  9  1  0  0  0  0
  8 14  2  0  0  0  0
  9 10  2  0  0  0  0
  9 26  1  0  0  0  0
 10 11  1  0  0  0  0
 10 27  1  0  0  0  0
 11 12  2  0  0  0  0
 11 28  1  0  0  0  0
 12 13  1  0  0  0  0
 12 14  1  0  0  0  0
 14 29  1  0  0  0  0
 15 16  1  0  0  0  0
 15 17  1  0  0  0  0
 16 30  1  0  0  0  0
 17 18  1  0  0  0  0
 18 31  1  0  0  0  0
M  END
>  <Line_Number>
14


> <IC50>
52000

$$$$
