CHEMBL4289842
 OpenBabel09092522103D

 44 46  0  0  0  0  0  0  0  0999 V2000
    1.0127   -0.3825   -0.2183 C   0  0  0  0  0  0  0  0  0  0  0  0
    2.5145   -0.4906   -0.2188 C   0  0  0  0  0  0  0  0  0  0  0  0
    3.1511   -1.1399    0.9783 C   0  0  0  0  0  0  0  0  0  0  0  0
    3.2360    0.0351   -1.2307 C   0  0  0  0  0  0  0  0  0  0  0  0
    4.7374    0.0589   -1.3193 C   0  0  0  0  0  0  0  0  0  0  0  0
    5.1668   -0.0339   -2.6929 N   0  0  0  0  0  0  0  0  0  0  0  0
    5.3993    1.0708   -3.4948 C   0  0  0  0  0  0  0  0  0  0  0  0
    5.2907    2.2468   -3.2230 O   0  0  0  0  0  0  0  0  0  0  0  0
    5.8828    0.5061   -4.8435 C   0  0  0  0  0  0  0  0  0  0  0  0
    6.2162    1.2894   -5.8215 N   0  0  0  0  0  0  0  0  0  0  0  0
    6.7696    0.7465   -6.9424 N   0  0  0  0  0  0  0  0  0  0  0  0
    6.7370    1.4471   -8.1420 C   0  0  0  0  0  0  0  0  0  0  0  0
    6.1980    2.5314   -8.3213 O   0  0  0  0  0  0  0  0  0  0  0  0
    7.4092    0.7725   -9.2943 C   0  0  0  0  0  0  0  0  0  0  0  0
    7.5330   -0.6223   -9.3678 C   0  0  0  0  0  0  0  0  0  0  0  0
    8.1297   -1.2248  -10.4755 C   0  0  0  0  0  0  0  0  0  0  0  0
    8.5966   -0.4375  -11.5259 C   0  0  0  0  0  0  0  0  0  0  0  0
    8.4589    0.9495  -11.4652 C   0  0  0  0  0  0  0  0  0  0  0  0
    9.0730    2.0074  -12.9063 Br  0  0  0  0  0  0  0  0  0  0  0  0
    7.8658    1.5591  -10.3596 C   0  0  0  0  0  0  0  0  0  0  0  0
    5.8434   -0.9576   -4.6996 C   0  0  0  0  0  0  0  0  0  0  0  0
    6.0903   -1.9822   -5.5962 C   0  0  0  0  0  0  0  0  0  0  0  0
    5.9853   -3.2979   -5.1416 C   0  0  0  0  0  0  0  0  0  0  0  0
    5.6121   -3.5671   -3.8160 C   0  0  0  0  0  0  0  0  0  0  0  0
    5.3146   -2.5242   -2.9320 C   0  0  0  0  0  0  0  0  0  0  0  0
    5.4303   -1.2229   -3.3895 C   0  0  0  0  0  0  0  0  0  0  0  0
    0.5726   -0.8102    0.6894 H   0  0  0  0  0  0  0  0  0  0  0  0
    0.5847   -0.9161   -1.0720 H   0  0  0  0  0  0  0  0  0  0  0  0
    0.7027    0.6675   -0.2611 H   0  0  0  0  0  0  0  0  0  0  0  0
    2.4093   -1.4461    1.7222 H   0  0  0  0  0  0  0  0  0  0  0  0
    3.8349   -0.4422    1.4740 H   0  0  0  0  0  0  0  0  0  0  0  0
    3.7043   -2.0362    0.6813 H   0  0  0  0  0  0  0  0  0  0  0  0
    2.7051    0.5345   -2.0418 H   0  0  0  0  0  0  0  0  0  0  0  0
    5.2064   -0.7420   -0.7408 H   0  0  0  0  0  0  0  0  0  0  0  0
    5.0919    1.0140   -0.9126 H   0  0  0  0  0  0  0  0  0  0  0  0
    7.4600    0.0191   -6.8085 H   0  0  0  0  0  0  0  0  0  0  0  0
    7.1342   -1.2672   -8.5937 H   0  0  0  0  0  0  0  0  0  0  0  0
    8.2144   -2.3081  -10.5298 H   0  0  0  0  0  0  0  0  0  0  0  0
    9.0516   -0.9130  -12.3916 H   0  0  0  0  0  0  0  0  0  0  0  0
    7.7471    2.6404  -10.3239 H   0  0  0  0  0  0  0  0  0  0  0  0
    6.3311   -1.7998   -6.6319 H   0  0  0  0  0  0  0  0  0  0  0  0
    6.1829   -4.1250   -5.8217 H   0  0  0  0  0  0  0  0  0  0  0  0
    5.5372   -4.5990   -3.4794 H   0  0  0  0  0  0  0  0  0  0  0  0
    4.9972   -2.7512   -1.9191 H   0  0  0  0  0  0  0  0  0  0  0  0
  1  2  1  0  0  0  0
  1 27  1  0  0  0  0
  1 28  1  0  0  0  0
  1 29  1  0  0  0  0
  2  3  1  0  0  0  0
  2  4  2  0  0  0  0
  3 30  1  0  0  0  0
  3 31  1  0  0  0  0
  3 32  1  0  0  0  0
  4  5  1  0  0  0  0
  4 33  1  0  0  0  0
  5  6  1  0  0  0  0
  5 34  1  0  0  0  0
  5 35  1  0  0  0  0
  6  7  1  0  0  0  0
  6 26  1  0  0  0  0
  7  8  2  0  0  0  0
  7  9  1  0  0  0  0
  9 10  2  0  0  0  0
  9 21  1  0  0  0  0
 10 11  1  0  0  0  0
 11 12  1  0  0  0  0
 11 36  1  0  0  0  0
 12 13  2  0  0  0  0
 12 14  1  0  0  0  0
 14 15  1  0  0  0  0
 14 20  2  0  0  0  0
 15 16  2  0  0  0  0
 15 37  1  0  0  0  0
 16 17  1  0  0  0  0
 16 38  1  0  0  0  0
 17 18  2  0  0  0  0
 17 39  1  0  0  0  0
 18 19  1  0  0  0  0
 18 20  1  0  0  0  0
 20 40  1  0  0  0  0
 21 22  1  0  0  0  0
 21 26  2  0  0  0  0
 22 23  2  0  0  0  0
 22 41  1  0  0  0  0
 23 24  1  0  0  0  0
 23 42  1  0  0  0  0
 24 25  2  0  0  0  0
 24 43  1  0  0  0  0
 25 26  1  0  0  0  0
 25 44  1  0  0  0  0
M  END
>  <Line_Number>
151


> <IC50>
27600

$$$$
