CHEMBL4278846
 OpenBabel09092522103D

 50 52  0  0  0  0  0  0  0  0999 V2000
    7.4792    0.5890   -1.3094 C   0  0  0  0  0  0  0  0  0  0  0  0
    6.3436    0.6049   -0.3249 C   0  0  0  0  0  0  0  0  0  0  0  0
    5.8204    1.9477    0.1060 C   0  0  0  0  0  0  0  0  0  0  0  0
    5.8263   -0.5444    0.1557 C   0  0  0  0  0  0  0  0  0  0  0  0
    4.7011   -0.6309    1.1494 C   0  0  0  0  0  0  0  0  0  0  0  0
    5.1324   -1.3566    2.3196 N   0  0  0  0  0  0  0  0  0  0  0  0
    5.7021   -0.7672    3.4399 C   0  0  0  0  0  0  0  0  0  0  0  0
    5.9949    0.3910    3.6287 O   0  0  0  0  0  0  0  0  0  0  0  0
    5.8703   -1.9207    4.4627 C   0  0  0  0  0  0  0  0  0  0  0  0
    6.2123   -1.6920    5.6944 N   0  0  0  0  0  0  0  0  0  0  0  0
    6.3058   -2.7361    6.5732 N   0  0  0  0  0  0  0  0  0  0  0  0
    6.1409   -2.5152    7.9370 C   0  0  0  0  0  0  0  0  0  0  0  0
    5.8546   -1.4384    8.4517 O   0  0  0  0  0  0  0  0  0  0  0  0
    6.3226   -3.7108    8.8203 C   0  0  0  0  0  0  0  0  0  0  0  0
    6.7630   -3.5009   10.1345 C   0  0  0  0  0  0  0  0  0  0  0  0
    6.9301   -4.5759   11.0174 C   0  0  0  0  0  0  0  0  0  0  0  0
    7.4342   -4.3483   12.4125 C   0  0  0  0  0  0  0  0  0  0  0  0
    6.6194   -5.8706   10.5852 C   0  0  0  0  0  0  0  0  0  0  0  0
    6.1505   -6.1001    9.2854 C   0  0  0  0  0  0  0  0  0  0  0  0
    5.7905   -7.4925    8.8514 C   0  0  0  0  0  0  0  0  0  0  0  0
    6.0071   -5.0136    8.4040 C   0  0  0  0  0  0  0  0  0  0  0  0
    5.4274   -3.1356    3.7612 C   0  0  0  0  0  0  0  0  0  0  0  0
    5.3541   -4.4615    4.1575 C   0  0  0  0  0  0  0  0  0  0  0  0
    4.7610   -5.3791    3.2884 C   0  0  0  0  0  0  0  0  0  0  0  0
    4.2691   -4.9710    2.0415 C   0  0  0  0  0  0  0  0  0  0  0  0
    4.3826   -3.6411    1.6352 C   0  0  0  0  0  0  0  0  0  0  0  0
    4.9607   -2.7323    2.5082 C   0  0  0  0  0  0  0  0  0  0  0  0
    7.7718    1.6005   -1.6092 H   0  0  0  0  0  0  0  0  0  0  0  0
    7.1960    0.0487   -2.2187 H   0  0  0  0  0  0  0  0  0  0  0  0
    8.3615    0.1103   -0.8719 H   0  0  0  0  0  0  0  0  0  0  0  0
    6.3383    2.7742   -0.3868 H   0  0  0  0  0  0  0  0  0  0  0  0
    5.9458    2.0785    1.1860 H   0  0  0  0  0  0  0  0  0  0  0  0
    4.7568    2.0364   -0.1431 H   0  0  0  0  0  0  0  0  0  0  0  0
    6.2328   -1.4909   -0.1976 H   0  0  0  0  0  0  0  0  0  0  0  0
    3.8370   -1.1214    0.6885 H   0  0  0  0  0  0  0  0  0  0  0  0
    4.3587    0.3561    1.4727 H   0  0  0  0  0  0  0  0  0  0  0  0
    6.8012   -3.5619    6.2661 H   0  0  0  0  0  0  0  0  0  0  0  0
    6.9719   -2.4870   10.4731 H   0  0  0  0  0  0  0  0  0  0  0  0
    7.6292   -3.2871   12.5968 H   0  0  0  0  0  0  0  0  0  0  0  0
    8.3728   -4.8914   12.5645 H   0  0  0  0  0  0  0  0  0  0  0  0
    6.6965   -4.6883   13.1463 H   0  0  0  0  0  0  0  0  0  0  0  0
    6.7320   -6.7061   11.2757 H   0  0  0  0  0  0  0  0  0  0  0  0
    5.9509   -8.2159    9.6589 H   0  0  0  0  0  0  0  0  0  0  0  0
    6.4119   -7.7977    8.0040 H   0  0  0  0  0  0  0  0  0  0  0  0
    4.7346   -7.5441    8.5669 H   0  0  0  0  0  0  0  0  0  0  0  0
    5.6041   -5.1940    7.4140 H   0  0  0  0  0  0  0  0  0  0  0  0
    5.7179   -4.8108    5.1104 H   0  0  0  0  0  0  0  0  0  0  0  0
    4.6636   -6.4206    3.5889 H   0  0  0  0  0  0  0  0  0  0  0  0
    3.7884   -5.6957    1.3883 H   0  0  0  0  0  0  0  0  0  0  0  0
    4.0016   -3.3448    0.6636 H   0  0  0  0  0  0  0  0  0  0  0  0
  1  2  1  0  0  0  0
  1 28  1  0  0  0  0
  1 29  1  0  0  0  0
  1 30  1  0  0  0  0
  2  3  1  0  0  0  0
  2  4  2  0  0  0  0
  3 31  1  0  0  0  0
  3 32  1  0  0  0  0
  3 33  1  0  0  0  0
  4  5  1  0  0  0  0
  4 34  1  0  0  0  0
  5  6  1  0  0  0  0
  5 35  1  0  0  0  0
  5 36  1  0  0  0  0
  6  7  1  0  0  0  0
  6 27  1  0  0  0  0
  7  8  2  0  0  0  0
  7  9  1  0  0  0  0
  9 10  2  0  0  0  0
  9 22  1  0  0  0  0
 10 11  1  0  0  0  0
 11 12  1  0  0  0  0
 11 37  1  0  0  0  0
 12 13  2  0  0  0  0
 12 14  1  0  0  0  0
 14 15  1  0  0  0  0
 14 21  2  0  0  0  0
 15 16  2  0  0  0  0
 15 38  1  0  0  0  0
 16 17  1  0  0  0  0
 16 18  1  0  0  0  0
 17 39  1  0  0  0  0
 17 40  1  0  0  0  0
 17 41  1  0  0  0  0
 18 19  2  0  0  0  0
 18 42  1  0  0  0  0
 19 20  1  0  0  0  0
 19 21  1  0  0  0  0
 20 43  1  0  0  0  0
 20 44  1  0  0  0  0
 20 45  1  0  0  0  0
 21 46  1  0  0  0  0
 22 23  1  0  0  0  0
 22 27  2  0  0  0  0
 23 24  2  0  0  0  0
 23 47  1  0  0  0  0
 24 25  1  0  0  0  0
 24 48  1  0  0  0  0
 25 26  2  0  0  0  0
 25 49  1  0  0  0  0
 26 27  1  0  0  0  0
 26 50  1  0  0  0  0
M  END
>  <Line_Number>
152


> <IC50>
4380

$$$$
