CHEMBL4291305
 OpenBabel09092522103D

 44 46  0  0  0  0  0  0  0  0999 V2000
    7.5333    0.9484    0.9850 C   0  0  0  0  0  0  0  0  0  0  0  0
    6.3918    0.6514    0.0515 C   0  0  0  0  0  0  0  0  0  0  0  0
    5.9527    1.7574   -0.8680 C   0  0  0  0  0  0  0  0  0  0  0  0
    5.8117   -0.5633    0.0504 C   0  0  0  0  0  0  0  0  0  0  0  0
    4.6899   -0.9967   -0.8489 C   0  0  0  0  0  0  0  0  0  0  0  0
    5.1023   -2.1512   -1.6058 N   0  0  0  0  0  0  0  0  0  0  0  0
    5.6884   -2.0798   -2.8591 C   0  0  0  0  0  0  0  0  0  0  0  0
    6.0222   -1.1039   -3.4958 O   0  0  0  0  0  0  0  0  0  0  0  0
    5.8259   -3.5423   -3.3276 C   0  0  0  0  0  0  0  0  0  0  0  0
    6.3879   -3.8417   -4.4584 N   0  0  0  0  0  0  0  0  0  0  0  0
    6.5939   -5.1540   -4.7583 N   0  0  0  0  0  0  0  0  0  0  0  0
    6.7453   -5.5719   -6.0742 C   0  0  0  0  0  0  0  0  0  0  0  0
    6.7022   -4.8579   -7.0664 O   0  0  0  0  0  0  0  0  0  0  0  0
    6.9501   -7.0474   -6.2344 C   0  0  0  0  0  0  0  0  0  0  0  0
    6.4424   -7.9595   -5.2995 C   0  0  0  0  0  0  0  0  0  0  0  0
    6.6255   -9.3315   -5.4699 C   0  0  0  0  0  0  0  0  0  0  0  0
    7.3028   -9.8013   -6.5883 C   0  0  0  0  0  0  0  0  0  0  0  0
    7.7932   -8.9030   -7.5375 C   0  0  0  0  0  0  0  0  0  0  0  0
    7.6150   -7.5270   -7.3652 C   0  0  0  0  0  0  0  0  0  0  0  0
    5.1988   -4.3573   -2.2734 C   0  0  0  0  0  0  0  0  0  0  0  0
    4.8885   -5.7035   -2.1927 C   0  0  0  0  0  0  0  0  0  0  0  0
    4.2829   -6.1822   -1.0272 C   0  0  0  0  0  0  0  0  0  0  0  0
    3.9713   -5.3091    0.0233 C   0  0  0  0  0  0  0  0  0  0  0  0
    4.2275   -3.9415   -0.0925 C   0  0  0  0  0  0  0  0  0  0  0  0
    4.8274   -3.4798   -1.2536 C   0  0  0  0  0  0  0  0  0  0  0  0
    7.8742    1.9854    0.8947 H   0  0  0  0  0  0  0  0  0  0  0  0
    8.3884    0.3030    0.7612 H   0  0  0  0  0  0  0  0  0  0  0  0
    7.2321    0.7940    2.0254 H   0  0  0  0  0  0  0  0  0  0  0  0
    6.5177    2.6799   -0.7031 H   0  0  0  0  0  0  0  0  0  0  0  0
    4.8958    1.9946   -0.7005 H   0  0  0  0  0  0  0  0  0  0  0  0
    6.0937    1.4699   -1.9155 H   0  0  0  0  0  0  0  0  0  0  0  0
    6.1693   -1.3147    0.7536 H   0  0  0  0  0  0  0  0  0  0  0  0
    4.3992   -0.2134   -1.5553 H   0  0  0  0  0  0  0  0  0  0  0  0
    3.8004   -1.2281   -0.2541 H   0  0  0  0  0  0  0  0  0  0  0  0
    6.8976   -5.7588   -4.0025 H   0  0  0  0  0  0  0  0  0  0  0  0
    5.8661   -7.6335   -4.4466 H   0  0  0  0  0  0  0  0  0  0  0  0
    6.2241  -10.0265   -4.7367 H   0  0  0  0  0  0  0  0  0  0  0  0
    7.4363  -10.8712   -6.7287 H   0  0  0  0  0  0  0  0  0  0  0  0
    8.3096   -9.2760   -8.4186 H   0  0  0  0  0  0  0  0  0  0  0  0
    7.9908   -6.8339   -8.1159 H   0  0  0  0  0  0  0  0  0  0  0  0
    5.0600   -6.3836   -3.0099 H   0  0  0  0  0  0  0  0  0  0  0  0
    4.0383   -7.2391   -0.9362 H   0  0  0  0  0  0  0  0  0  0  0  0
    3.5058   -5.6969    0.9273 H   0  0  0  0  0  0  0  0  0  0  0  0
    3.9532   -3.2749    0.7175 H   0  0  0  0  0  0  0  0  0  0  0  0
  1  2  1  0  0  0  0
  1 26  1  0  0  0  0
  1 27  1  0  0  0  0
  1 28  1  0  0  0  0
  2  3  1  0  0  0  0
  2  4  2  0  0  0  0
  3 29  1  0  0  0  0
  3 30  1  0  0  0  0
  3 31  1  0  0  0  0
  4  5  1  0  0  0  0
  4 32  1  0  0  0  0
  5  6  1  0  0  0  0
  5 33  1  0  0  0  0
  5 34  1  0  0  0  0
  6  7  1  0  0  0  0
  6 25  1  0  0  0  0
  7  8  2  0  0  0  0
  7  9  1  0  0  0  0
  9 10  2  0  0  0  0
  9 20  1  0  0  0  0
 10 11  1  0  0  0  0
 11 12  1  0  0  0  0
 11 35  1  0  0  0  0
 12 13  2  0  0  0  0
 12 14  1  0  0  0  0
 14 15  1  0  0  0  0
 14 19  2  0  0  0  0
 15 16  2  0  0  0  0
 15 36  1  0  0  0  0
 16 17  1  0  0  0  0
 16 37  1  0  0  0  0
 17 18  2  0  0  0  0
 17 38  1  0  0  0  0
 18 19  1  0  0  0  0
 18 39  1  0  0  0  0
 19 40  1  0  0  0  0
 20 21  1  0  0  0  0
 20 25  2  0  0  0  0
 21 22  2  0  0  0  0
 21 41  1  0  0  0  0
 22 23  1  0  0  0  0
 22 42  1  0  0  0  0
 23 24  2  0  0  0  0
 23 43  1  0  0  0  0
 24 25  1  0  0  0  0
 24 44  1  0  0  0  0
M  END
>  <Line_Number>
153


> <IC50>
129000

$$$$
