CHEMBL4294307
 OpenBabel09092522103D

 55 58  0  0  0  0  0  0  0  0999 V2000
    0.9176    0.3098    0.2359 C   0  0  0  0  0  0  0  0  0  0  0  0
    2.3710   -0.0791    0.1895 C   0  0  0  0  0  0  0  0  0  0  0  0
    2.8675   -0.7291   -1.0703 C   0  0  0  0  0  0  0  0  0  0  0  0
    3.1844    0.2036    1.2294 C   0  0  0  0  0  0  0  0  0  0  0  0
    4.6563   -0.0963    1.2911 C   0  0  0  0  0  0  0  0  0  0  0  0
    5.0527   -0.3627    2.6530 N   0  0  0  0  0  0  0  0  0  0  0  0
    5.5297    0.6141    3.5126 C   0  0  0  0  0  0  0  0  0  0  0  0
    5.6560    1.8009    3.3159 O   0  0  0  0  0  0  0  0  0  0  0  0
    5.8837   -0.1254    4.8212 C   0  0  0  0  0  0  0  0  0  0  0  0
    6.2496    0.5348    5.8752 N   0  0  0  0  0  0  0  0  0  0  0  0
    6.4441   -0.1239    7.0472 N   0  0  0  0  0  0  0  0  0  0  0  0
    6.8342    0.5553    8.1932 C   0  0  0  0  0  0  0  0  0  0  0  0
    7.0257    1.7578    8.2968 O   0  0  0  0  0  0  0  0  0  0  0  0
    7.0054   -0.3234    9.3932 C   0  0  0  0  0  0  0  0  0  0  0  0
    7.3912   -1.6658    9.2648 C   0  0  0  0  0  0  0  0  0  0  0  0
    7.5314   -2.4719   10.3964 C   0  0  0  0  0  0  0  0  0  0  0  0
    7.3722   -1.9265   11.6727 C   0  0  0  0  0  0  0  0  0  0  0  0
    7.5282   -2.6375   12.8434 O   0  0  0  0  0  0  0  0  0  0  0  0
    8.4833   -3.6278   12.9324 C   0  0  0  0  0  0  0  0  0  0  0  0
    9.6665   -3.6567   12.1884 C   0  0  0  0  0  0  0  0  0  0  0  0
   10.5516   -4.7273   12.3103 C   0  0  0  0  0  0  0  0  0  0  0  0
   10.2954   -5.7393   13.2318 C   0  0  0  0  0  0  0  0  0  0  0  0
    9.1557   -5.6790   14.0330 C   0  0  0  0  0  0  0  0  0  0  0  0
    8.2488   -4.6266   13.8813 C   0  0  0  0  0  0  0  0  0  0  0  0
    6.9839   -0.5913   11.8072 C   0  0  0  0  0  0  0  0  0  0  0  0
    6.8019    0.2095   10.6722 C   0  0  0  0  0  0  0  0  0  0  0  0
    5.6596   -1.5534    4.5393 C   0  0  0  0  0  0  0  0  0  0  0  0
    5.9144   -2.7060    5.2688 C   0  0  0  0  0  0  0  0  0  0  0  0
    5.5461   -3.9366    4.7181 C   0  0  0  0  0  0  0  0  0  0  0  0
    4.9643   -4.0040    3.4448 C   0  0  0  0  0  0  0  0  0  0  0  0
    4.7628   -2.8458    2.6911 C   0  0  0  0  0  0  0  0  0  0  0  0
    5.1219   -1.6290    3.2487 C   0  0  0  0  0  0  0  0  0  0  0  0
    0.3993    0.0615   -0.6959 H   0  0  0  0  0  0  0  0  0  0  0  0
    0.8101    1.3889    0.3884 H   0  0  0  0  0  0  0  0  0  0  0  0
    0.4044   -0.2174    1.0466 H   0  0  0  0  0  0  0  0  0  0  0  0
    2.0756   -0.8319   -1.8188 H   0  0  0  0  0  0  0  0  0  0  0  0
    3.2499   -1.7332   -0.8602 H   0  0  0  0  0  0  0  0  0  0  0  0
    3.6646   -0.1293   -1.5232 H   0  0  0  0  0  0  0  0  0  0  0  0
    2.7672    0.7225    2.0915 H   0  0  0  0  0  0  0  0  0  0  0  0
    5.2103    0.7769    0.9292 H   0  0  0  0  0  0  0  0  0  0  0  0
    4.9340   -0.9485    0.6635 H   0  0  0  0  0  0  0  0  0  0  0  0
    6.0484   -1.0428    7.1550 H   0  0  0  0  0  0  0  0  0  0  0  0
    7.6225   -2.0968    8.2959 H   0  0  0  0  0  0  0  0  0  0  0  0
    7.8048   -3.5153   10.2637 H   0  0  0  0  0  0  0  0  0  0  0  0
    9.9124   -2.8587   11.4939 H   0  0  0  0  0  0  0  0  0  0  0  0
   11.4419   -4.7635   11.6885 H   0  0  0  0  0  0  0  0  0  0  0  0
   10.9936   -6.5660   13.3362 H   0  0  0  0  0  0  0  0  0  0  0  0
    8.9733   -6.4524   14.7747 H   0  0  0  0  0  0  0  0  0  0  0  0
    7.3603   -4.5878   14.5068 H   0  0  0  0  0  0  0  0  0  0  0  0
    6.8322   -0.1676   12.7971 H   0  0  0  0  0  0  0  0  0  0  0  0
    6.5071    1.2507   10.7896 H   0  0  0  0  0  0  0  0  0  0  0  0
    6.4082   -2.7032    6.2294 H   0  0  0  0  0  0  0  0  0  0  0  0
    5.7158   -4.8530    5.2803 H   0  0  0  0  0  0  0  0  0  0  0  0
    4.6805   -4.9721    3.0354 H   0  0  0  0  0  0  0  0  0  0  0  0
    4.3298   -2.9182    1.6991 H   0  0  0  0  0  0  0  0  0  0  0  0
  1  2  1  0  0  0  0
  1 33  1  0  0  0  0
  1 34  1  0  0  0  0
  1 35  1  0  0  0  0
  2  3  1  0  0  0  0
  2  4  2  0  0  0  0
  3 36  1  0  0  0  0
  3 37  1  0  0  0  0
  3 38  1  0  0  0  0
  4  5  1  0  0  0  0
  4 39  1  0  0  0  0
  5  6  1  0  0  0  0
  5 40  1  0  0  0  0
  5 41  1  0  0  0  0
  6  7  1  0  0  0  0
  6 32  1  0  0  0  0
  7  8  2  0  0  0  0
  7  9  1  0  0  0  0
  9 10  2  0  0  0  0
  9 27  1  0  0  0  0
 10 11  1  0  0  0  0
 11 12  1  0  0  0  0
 11 42  1  0  0  0  0
 12 13  2  0  0  0  0
 12 14  1  0  0  0  0
 14 15  1  0  0  0  0
 14 26  2  0  0  0  0
 15 16  2  0  0  0  0
 15 43  1  0  0  0  0
 16 17  1  0  0  0  0
 16 44  1  0  0  0  0
 17 18  1  0  0  0  0
 17 25  2  0  0  0  0
 18 19  1  0  0  0  0
 19 20  1  0  0  0  0
 19 24  2  0  0  0  0
 20 21  2  0  0  0  0
 20 45  1  0  0  0  0
 21 22  1  0  0  0  0
 21 46  1  0  0  0  0
 22 23  2  0  0  0  0
 22 47  1  0  0  0  0
 23 24  1  0  0  0  0
 23 48  1  0  0  0  0
 24 49  1  0  0  0  0
 25 26  1  0  0  0  0
 25 50  1  0  0  0  0
 26 51  1  0  0  0  0
 27 28  1  0  0  0  0
 27 32  2  0  0  0  0
 28 29  2  0  0  0  0
 28 52  1  0  0  0  0
 29 30  1  0  0  0  0
 29 53  1  0  0  0  0
 30 31  2  0  0  0  0
 30 54  1  0  0  0  0
 31 32  1  0  0  0  0
 31 55  1  0  0  0  0
M  END
>  <Line_Number>
155


> <IC50>
22700

$$$$
