CHEMBL4281503
 OpenBabel09092522103D

 44 46  0  0  0  0  0  0  0  0999 V2000
    2.6897    0.1807    3.3477 C   0  0  0  0  0  0  0  0  0  0  0  0
    3.0480   -0.1090    1.9133 C   0  0  0  0  0  0  0  0  0  0  0  0
    2.0752    0.3564    0.8671 C   0  0  0  0  0  0  0  0  0  0  0  0
    4.1944   -0.7574    1.6191 C   0  0  0  0  0  0  0  0  0  0  0  0
    4.6545   -1.2210    0.2629 C   0  0  0  0  0  0  0  0  0  0  0  0
    5.0744   -2.6062    0.3425 N   0  0  0  0  0  0  0  0  0  0  0  0
    6.3761   -2.9850    0.6374 C   0  0  0  0  0  0  0  0  0  0  0  0
    7.3383   -2.2837    0.8741 O   0  0  0  0  0  0  0  0  0  0  0  0
    6.3692   -4.5215    0.6439 C   0  0  0  0  0  0  0  0  0  0  0  0
    7.4546   -5.2047    0.8777 N   0  0  0  0  0  0  0  0  0  0  0  0
    7.3622   -6.5596    0.9987 N   0  0  0  0  0  0  0  0  0  0  0  0
    8.4800   -7.3624    0.8042 C   0  0  0  0  0  0  0  0  0  0  0  0
    9.5949   -6.9719    0.4771 O   0  0  0  0  0  0  0  0  0  0  0  0
    8.2529   -8.8284    1.0003 C   0  0  0  0  0  0  0  0  0  0  0  0
    6.9979   -9.4172    0.7855 C   0  0  0  0  0  0  0  0  0  0  0  0
    6.8212  -10.7944    0.9380 C   0  0  0  0  0  0  0  0  0  0  0  0
    7.9052  -11.5937    1.2904 C   0  0  0  0  0  0  0  0  0  0  0  0
    7.6651  -13.4591    1.4707 Br  0  0  0  0  0  0  0  0  0  0  0  0
    9.1629  -11.0275    1.4907 C   0  0  0  0  0  0  0  0  0  0  0  0
    9.3377   -9.6466    1.3418 C   0  0  0  0  0  0  0  0  0  0  0  0
    4.9943   -4.9146    0.3252 C   0  0  0  0  0  0  0  0  0  0  0  0
    4.4159   -6.1609    0.1349 C   0  0  0  0  0  0  0  0  0  0  0  0
    3.0590   -6.2226   -0.1733 C   0  0  0  0  0  0  0  0  0  0  0  0
    2.3154   -5.0459   -0.3316 C   0  0  0  0  0  0  0  0  0  0  0  0
    2.9175   -3.7884   -0.1820 C   0  0  0  0  0  0  0  0  0  0  0  0
    4.2597   -3.7356    0.1560 C   0  0  0  0  0  0  0  0  0  0  0  0
    1.8611    0.8918    3.4287 H   0  0  0  0  0  0  0  0  0  0  0  0
    3.5363    0.6062    3.8963 H   0  0  0  0  0  0  0  0  0  0  0  0
    2.3767   -0.7448    3.8433 H   0  0  0  0  0  0  0  0  0  0  0  0
    1.2595    0.9436    1.3016 H   0  0  0  0  0  0  0  0  0  0  0  0
    1.6276   -0.4935    0.3450 H   0  0  0  0  0  0  0  0  0  0  0  0
    2.5771    1.0044    0.1399 H   0  0  0  0  0  0  0  0  0  0  0  0
    4.8808   -0.9851    2.4358 H   0  0  0  0  0  0  0  0  0  0  0  0
    5.5131   -0.6138   -0.0445 H   0  0  0  0  0  0  0  0  0  0  0  0
    3.8852   -1.1185   -0.5071 H   0  0  0  0  0  0  0  0  0  0  0  0
    6.5910   -6.9166    1.5488 H   0  0  0  0  0  0  0  0  0  0  0  0
    6.1493   -8.8331    0.4556 H   0  0  0  0  0  0  0  0  0  0  0  0
    5.8423  -11.2328    0.7594 H   0  0  0  0  0  0  0  0  0  0  0  0
   10.0154  -11.6502    1.7516 H   0  0  0  0  0  0  0  0  0  0  0  0
   10.3261   -9.2108    1.4834 H   0  0  0  0  0  0  0  0  0  0  0  0
    4.9815   -7.0750    0.1908 H   0  0  0  0  0  0  0  0  0  0  0  0
    2.5786   -7.1921   -0.3078 H   0  0  0  0  0  0  0  0  0  0  0  0
    1.2585   -5.1168   -0.5892 H   0  0  0  0  0  0  0  0  0  0  0  0
    2.3287   -2.8931   -0.3433 H   0  0  0  0  0  0  0  0  0  0  0  0
  1  2  1  0  0  0  0
  1 27  1  0  0  0  0
  1 28  1  0  0  0  0
  1 29  1  0  0  0  0
  2  3  1  0  0  0  0
  2  4  2  0  0  0  0
  3 30  1  0  0  0  0
  3 31  1  0  0  0  0
  3 32  1  0  0  0  0
  4  5  1  0  0  0  0
  4 33  1  0  0  0  0
  5  6  1  0  0  0  0
  5 34  1  0  0  0  0
  5 35  1  0  0  0  0
  6  7  1  0  0  0  0
  6 26  1  0  0  0  0
  7  8  2  0  0  0  0
  7  9  1  0  0  0  0
  9 10  2  0  0  0  0
  9 21  1  0  0  0  0
 10 11  1  0  0  0  0
 11 12  1  0  0  0  0
 11 36  1  0  0  0  0
 12 13  2  0  0  0  0
 12 14  1  0  0  0  0
 14 15  1  0  0  0  0
 14 20  2  0  0  0  0
 15 16  2  0  0  0  0
 15 37  1  0  0  0  0
 16 17  1  0  0  0  0
 16 38  1  0  0  0  0
 17 18  1  0  0  0  0
 17 19  2  0  0  0  0
 19 20  1  0  0  0  0
 19 39  1  0  0  0  0
 20 40  1  0  0  0  0
 21 22  1  0  0  0  0
 21 26  2  0  0  0  0
 22 23  2  0  0  0  0
 22 41  1  0  0  0  0
 23 24  1  0  0  0  0
 23 42  1  0  0  0  0
 24 25  2  0  0  0  0
 24 43  1  0  0  0  0
 25 26  1  0  0  0  0
 25 44  1  0  0  0  0
M  END
>  <Line_Number>
159


> <IC50>
83900

$$$$
