22662485.0
 OpenBabel09092522103D

 39 39  0  0  0  0  0  0  0  0999 V2000
    6.9499    1.9644    3.9500 C   0  0  0  0  0  0  0  0  0  0  0  0
    6.4909    1.2891    2.6693 C   0  0  0  0  0  0  0  0  0  0  0  0
    7.0065    2.0312    1.4424 C   0  0  0  0  0  0  0  0  0  0  0  0
    6.5353    1.3484    0.1617 C   0  0  0  0  0  0  0  0  0  0  0  0
    7.0551    2.0968   -1.0543 C   0  0  0  0  0  0  0  0  0  0  0  0
    6.6151    1.4256   -2.3521 C   0  0  0  0  0  0  0  0  0  0  0  0
    7.1361    2.1759   -3.5731 C   0  0  0  0  0  0  0  0  0  0  0  0
    8.6664    2.2262   -3.6115 C   0  0  0  0  0  0  0  0  0  0  0  0
    9.1318    2.9890   -4.8171 C   0  0  0  0  0  0  0  0  0  0  0  0
    9.3180    4.3806   -4.7309 C   0  0  0  0  0  0  0  0  0  0  0  0
    9.6505    5.1279   -5.8636 C   0  0  0  0  0  0  0  0  0  0  0  0
    9.7983    4.4773   -7.0834 C   0  0  0  0  0  0  0  0  0  0  0  0
   10.0864    5.1570   -8.2333 O   0  0  0  0  0  0  0  0  0  0  0  0
    9.6360    3.1015   -7.1719 C   0  0  0  0  0  0  0  0  0  0  0  0
    9.7728    2.4552   -8.3703 O   0  0  0  0  0  0  0  0  0  0  0  0
    9.3046    2.3589   -6.0466 C   0  0  0  0  0  0  0  0  0  0  0  0
    9.1269    1.0093   -6.1653 O   0  0  0  0  0  0  0  0  0  0  0  0
    6.5710    1.4216    4.8196 H   0  0  0  0  0  0  0  0  0  0  0  0
    6.5815    2.9940    4.0000 H   0  0  0  0  0  0  0  0  0  0  0  0
    8.0426    1.9870    4.0078 H   0  0  0  0  0  0  0  0  0  0  0  0
    5.3960    1.2544    2.6482 H   0  0  0  0  0  0  0  0  0  0  0  0
    6.8498    0.2535    2.6551 H   0  0  0  0  0  0  0  0  0  0  0  0
    8.1045    2.0654    1.4638 H   0  0  0  0  0  0  0  0  0  0  0  0
    6.6521    3.0693    1.4578 H   0  0  0  0  0  0  0  0  0  0  0  0
    5.4410    1.3116    0.1334 H   0  0  0  0  0  0  0  0  0  0  0  0
    6.9016    0.3149    0.1370 H   0  0  0  0  0  0  0  0  0  0  0  0
    8.1473    2.1239   -0.9884 H   0  0  0  0  0  0  0  0  0  0  0  0
    6.7041    3.1361   -1.0412 H   0  0  0  0  0  0  0  0  0  0  0  0
    5.5196    1.3905   -2.3967 H   0  0  0  0  0  0  0  0  0  0  0  0
    6.9689    0.3878   -2.3801 H   0  0  0  0  0  0  0  0  0  0  0  0
    6.7248    3.1938   -3.5765 H   0  0  0  0  0  0  0  0  0  0  0  0
    6.7543    1.6869   -4.4783 H   0  0  0  0  0  0  0  0  0  0  0  0
    9.0855    1.2122   -3.5990 H   0  0  0  0  0  0  0  0  0  0  0  0
    9.0714    2.7261   -2.7252 H   0  0  0  0  0  0  0  0  0  0  0  0
    9.1807    4.8887   -3.7782 H   0  0  0  0  0  0  0  0  0  0  0  0
    9.7703    6.2026   -5.7717 H   0  0  0  0  0  0  0  0  0  0  0  0
   10.1056    6.1065   -8.0213 H   0  0  0  0  0  0  0  0  0  0  0  0
    9.9826    3.1735   -9.0013 H   0  0  0  0  0  0  0  0  0  0  0  0
    9.2954    0.8238   -7.1141 H   0  0  0  0  0  0  0  0  0  0  0  0
  1  2  1  0  0  0  0
  1 18  1  0  0  0  0
  1 19  1  0  0  0  0
  1 20  1  0  0  0  0
  2  3  1  0  0  0  0
  2 21  1  0  0  0  0
  2 22  1  0  0  0  0
  3  4  1  0  0  0  0
  3 23  1  0  0  0  0
  3 24  1  0  0  0  0
  4  5  1  0  0  0  0
  4 25  1  0  0  0  0
  4 26  1  0  0  0  0
  5  6  1  0  0  0  0
  5 27  1  0  0  0  0
  5 28  1  0  0  0  0
  6  7  1  0  0  0  0
  6 29  1  0  0  0  0
  6 30  1  0  0  0  0
  7  8  1  0  0  0  0
  7 31  1  0  0  0  0
  7 32  1  0  0  0  0
  8  9  1  0  0  0  0
  8 33  1  0  0  0  0
  8 34  1  0  0  0  0
  9 10  1  0  0  0  0
  9 16  2  0  0  0  0
 10 11  2  0  0  0  0
 10 35  1  0  0  0  0
 11 12  1  0  0  0  0
 11 36  1  0  0  0  0
 12 13  1  0  0  0  0
 12 14  2  0  0  0  0
 13 37  1  0  0  0  0
 14 15  1  0  0  0  0
 14 16  1  0  0  0  0
 15 38  1  0  0  0  0
 16 17  1  0  0  0  0
 17 39  1  0  0  0  0
M  END
>  <Line_Number>
15


> <IC50>
103000

$$$$
