CHEMBL4285715
 OpenBabel09092522103D

 42 44  0  0  0  0  0  0  0  0999 V2000
    7.1908    1.2888    1.8135 C   0  0  0  0  0  0  0  0  0  0  0  0
    6.0004    1.3609    0.8981 C   0  0  0  0  0  0  0  0  0  0  0  0
    4.9078    2.3288    1.2708 C   0  0  0  0  0  0  0  0  0  0  0  0
    5.9267    0.5778   -0.1965 C   0  0  0  0  0  0  0  0  0  0  0  0
    4.7737    0.5278   -1.1567 C   0  0  0  0  0  0  0  0  0  0  0  0
    5.2108    0.9065   -2.4790 N   0  0  0  0  0  0  0  0  0  0  0  0
    5.1895    2.2091   -2.9519 C   0  0  0  0  0  0  0  0  0  0  0  0
    4.8694    3.2298   -2.3832 O   0  0  0  0  0  0  0  0  0  0  0  0
    5.6537    2.1130   -4.4188 C   0  0  0  0  0  0  0  0  0  0  0  0
    5.7606    3.1728   -5.1570 N   0  0  0  0  0  0  0  0  0  0  0  0
    6.1972    3.0252   -6.4435 N   0  0  0  0  0  0  0  0  0  0  0  0
    5.6723    3.9837   -7.3584 C   0  0  0  0  0  0  0  0  0  0  0  0
    6.4041    4.3587   -8.4937 C   0  0  0  0  0  0  0  0  0  0  0  0
    5.8578    5.2404   -9.4348 C   0  0  0  0  0  0  0  0  0  0  0  0
    4.5660    5.7340   -9.2620 C   0  0  0  0  0  0  0  0  0  0  0  0
    3.8169    5.3441   -8.1566 C   0  0  0  0  0  0  0  0  0  0  0  0
    4.3659    4.4709   -7.2162 C   0  0  0  0  0  0  0  0  0  0  0  0
    5.9033    0.6909   -4.6727 C   0  0  0  0  0  0  0  0  0  0  0  0
    6.3119    0.0130   -5.8087 C   0  0  0  0  0  0  0  0  0  0  0  0
    6.5371   -1.3624   -5.7025 C   0  0  0  0  0  0  0  0  0  0  0  0
    6.3239   -2.0331   -4.4869 C   0  0  0  0  0  0  0  0  0  0  0  0
    5.8584   -1.3454   -3.3633 C   0  0  0  0  0  0  0  0  0  0  0  0
    5.6548    0.0205   -3.4706 C   0  0  0  0  0  0  0  0  0  0  0  0
    7.0951    1.9742    2.6613 H   0  0  0  0  0  0  0  0  0  0  0  0
    8.1094    1.5537    1.2799 H   0  0  0  0  0  0  0  0  0  0  0  0
    7.2950    0.2788    2.2234 H   0  0  0  0  0  0  0  0  0  0  0  0
    5.1332    2.8660    2.1972 H   0  0  0  0  0  0  0  0  0  0  0  0
    3.9657    1.7962    1.4229 H   0  0  0  0  0  0  0  0  0  0  0  0
    4.7735    3.0770    0.4825 H   0  0  0  0  0  0  0  0  0  0  0  0
    6.7476   -0.1044   -0.4086 H   0  0  0  0  0  0  0  0  0  0  0  0
    3.9642    1.2010   -0.8598 H   0  0  0  0  0  0  0  0  0  0  0  0
    4.3482   -0.4803   -1.1784 H   0  0  0  0  0  0  0  0  0  0  0  0
    7.2153    3.0082   -6.5310 H   0  0  0  0  0  0  0  0  0  0  0  0
    7.4094    3.9811   -8.6535 H   0  0  0  0  0  0  0  0  0  0  0  0
    6.4373    5.5376  -10.3047 H   0  0  0  0  0  0  0  0  0  0  0  0
    4.1372    6.4151   -9.9931 H   0  0  0  0  0  0  0  0  0  0  0  0
    2.8037    5.7123   -8.0207 H   0  0  0  0  0  0  0  0  0  0  0  0
    3.7683    4.1649   -6.3619 H   0  0  0  0  0  0  0  0  0  0  0  0
    6.4597    0.5171   -6.7565 H   0  0  0  0  0  0  0  0  0  0  0  0
    6.8889   -1.9199   -6.5683 H   0  0  0  0  0  0  0  0  0  0  0  0
    6.5252   -3.1008   -4.4209 H   0  0  0  0  0  0  0  0  0  0  0  0
    5.6899   -1.8816   -2.4362 H   0  0  0  0  0  0  0  0  0  0  0  0
  1  2  1  0  0  0  0
  1 24  1  0  0  0  0
  1 25  1  0  0  0  0
  1 26  1  0  0  0  0
  2  3  1  0  0  0  0
  2  4  2  0  0  0  0
  3 27  1  0  0  0  0
  3 28  1  0  0  0  0
  3 29  1  0  0  0  0
  4  5  1  0  0  0  0
  4 30  1  0  0  0  0
  5  6  1  0  0  0  0
  5 31  1  0  0  0  0
  5 32  1  0  0  0  0
  6  7  1  0  0  0  0
  6 23  1  0  0  0  0
  7  8  2  0  0  0  0
  7  9  1  0  0  0  0
  9 10  2  0  0  0  0
  9 18  1  0  0  0  0
 10 11  1  0  0  0  0
 11 12  1  0  0  0  0
 11 33  1  0  0  0  0
 12 13  1  0  0  0  0
 12 17  2  0  0  0  0
 13 14  2  0  0  0  0
 13 34  1  0  0  0  0
 14 15  1  0  0  0  0
 14 35  1  0  0  0  0
 15 16  2  0  0  0  0
 15 36  1  0  0  0  0
 16 17  1  0  0  0  0
 16 37  1  0  0  0  0
 17 38  1  0  0  0  0
 18 19  1  0  0  0  0
 18 23  2  0  0  0  0
 19 20  2  0  0  0  0
 19 39  1  0  0  0  0
 20 21  1  0  0  0  0
 20 40  1  0  0  0  0
 21 22  2  0  0  0  0
 21 41  1  0  0  0  0
 22 23  1  0  0  0  0
 22 42  1  0  0  0  0
M  END
>  <Line_Number>
161


> <IC50>
300000

$$$$
