CHEMBL4279161
 OpenBabel09092522103D

 44 46  0  0  0  0  0  0  0  0999 V2000
    1.0489    0.1659   -0.8152 C   0  0  0  0  0  0  0  0  0  0  0  0
    2.3601    0.6069   -0.2234 C   0  0  0  0  0  0  0  0  0  0  0  0
    2.3654    0.9432    1.2427 C   0  0  0  0  0  0  0  0  0  0  0  0
    3.4632    0.7074   -0.9947 C   0  0  0  0  0  0  0  0  0  0  0  0
    4.8254    1.1576   -0.5378 C   0  0  0  0  0  0  0  0  0  0  0  0
    5.2319    2.3092   -1.3036 N   0  0  0  0  0  0  0  0  0  0  0  0
    4.8814    3.6060   -0.9667 C   0  0  0  0  0  0  0  0  0  0  0  0
    4.2727    4.0097    0.0009 O   0  0  0  0  0  0  0  0  0  0  0  0
    5.4797    4.4915   -2.0745 C   0  0  0  0  0  0  0  0  0  0  0  0
    5.3270    5.7795   -2.0612 N   0  0  0  0  0  0  0  0  0  0  0  0
    5.9877    6.5261   -2.9854 N   0  0  0  0  0  0  0  0  0  0  0  0
    5.5390    7.7990   -3.3125 C   0  0  0  0  0  0  0  0  0  0  0  0
    4.5372    8.3477   -2.8697 O   0  0  0  0  0  0  0  0  0  0  0  0
    6.3791    8.5191   -4.3141 C   0  0  0  0  0  0  0  0  0  0  0  0
    7.1221    7.8227   -5.2795 C   0  0  0  0  0  0  0  0  0  0  0  0
    7.9032    8.5088   -6.2072 C   0  0  0  0  0  0  0  0  0  0  0  0
    7.9297    9.8983   -6.1870 C   0  0  0  0  0  0  0  0  0  0  0  0
    7.1671   10.5981   -5.2496 C   0  0  0  0  0  0  0  0  0  0  0  0
    7.1950   12.3187   -5.2519 Cl  0  0  0  0  0  0  0  0  0  0  0  0
    6.3868    9.9175   -4.3159 C   0  0  0  0  0  0  0  0  0  0  0  0
    6.1509    3.5696   -3.0052 C   0  0  0  0  0  0  0  0  0  0  0  0
    6.8003    3.7732   -4.2112 C   0  0  0  0  0  0  0  0  0  0  0  0
    7.3686    2.6715   -4.8570 C   0  0  0  0  0  0  0  0  0  0  0  0
    7.2567    1.3889   -4.3046 C   0  0  0  0  0  0  0  0  0  0  0  0
    6.5485    1.1833   -3.1168 C   0  0  0  0  0  0  0  0  0  0  0  0
    5.9916    2.2854   -2.4808 C   0  0  0  0  0  0  0  0  0  0  0  0
    0.2499    0.1415   -0.0663 H   0  0  0  0  0  0  0  0  0  0  0  0
    1.1316   -0.8422   -1.2343 H   0  0  0  0  0  0  0  0  0  0  0  0
    0.7315    0.8554   -1.6044 H   0  0  0  0  0  0  0  0  0  0  0  0
    1.3795    0.8116    1.6987 H   0  0  0  0  0  0  0  0  0  0  0  0
    2.6572    1.9866    1.3987 H   0  0  0  0  0  0  0  0  0  0  0  0
    3.0603    0.2901    1.7813 H   0  0  0  0  0  0  0  0  0  0  0  0
    3.3829    0.4454   -2.0491 H   0  0  0  0  0  0  0  0  0  0  0  0
    5.5485    0.3453   -0.6554 H   0  0  0  0  0  0  0  0  0  0  0  0
    4.8282    1.4384    0.5195 H   0  0  0  0  0  0  0  0  0  0  0  0
    6.9499    6.2748   -3.1751 H   0  0  0  0  0  0  0  0  0  0  0  0
    7.0792    6.7449   -5.3527 H   0  0  0  0  0  0  0  0  0  0  0  0
    8.4764    7.9606   -6.9501 H   0  0  0  0  0  0  0  0  0  0  0  0
    8.5355   10.4366   -6.9137 H   0  0  0  0  0  0  0  0  0  0  0  0
    5.7853   10.4672   -3.5951 H   0  0  0  0  0  0  0  0  0  0  0  0
    6.8579    4.7413   -4.6793 H   0  0  0  0  0  0  0  0  0  0  0  0
    7.8953    2.8068   -5.8000 H   0  0  0  0  0  0  0  0  0  0  0  0
    7.7162    0.5429   -4.8130 H   0  0  0  0  0  0  0  0  0  0  0  0
    6.4528    0.1799   -2.7183 H   0  0  0  0  0  0  0  0  0  0  0  0
  1  2  1  0  0  0  0
  1 27  1  0  0  0  0
  1 28  1  0  0  0  0
  1 29  1  0  0  0  0
  2  3  1  0  0  0  0
  2  4  2  0  0  0  0
  3 30  1  0  0  0  0
  3 31  1  0  0  0  0
  3 32  1  0  0  0  0
  4  5  1  0  0  0  0
  4 33  1  0  0  0  0
  5  6  1  0  0  0  0
  5 34  1  0  0  0  0
  5 35  1  0  0  0  0
  6  7  1  0  0  0  0
  6 26  1  0  0  0  0
  7  8  2  0  0  0  0
  7  9  1  0  0  0  0
  9 10  2  0  0  0  0
  9 21  1  0  0  0  0
 10 11  1  0  0  0  0
 11 12  1  0  0  0  0
 11 36  1  0  0  0  0
 12 13  2  0  0  0  0
 12 14  1  0  0  0  0
 14 15  1  0  0  0  0
 14 20  2  0  0  0  0
 15 16  2  0  0  0  0
 15 37  1  0  0  0  0
 16 17  1  0  0  0  0
 16 38  1  0  0  0  0
 17 18  2  0  0  0  0
 17 39  1  0  0  0  0
 18 19  1  0  0  0  0
 18 20  1  0  0  0  0
 20 40  1  0  0  0  0
 21 22  1  0  0  0  0
 21 26  2  0  0  0  0
 22 23  2  0  0  0  0
 22 41  1  0  0  0  0
 23 24  1  0  0  0  0
 23 42  1  0  0  0  0
 24 25  2  0  0  0  0
 24 43  1  0  0  0  0
 25 26  1  0  0  0  0
 25 44  1  0  0  0  0
M  END
>  <Line_Number>
162


> <IC50>
38100

$$$$
