163408943.0
 OpenBabel09092522103D

 45 48  0  0  0  0  0  0  0  0999 V2000
    1.8766    1.1241    2.0690 O   0  0  0  0  0  0  0  0  0  0  0  0
    2.8235    0.8322    1.3446 C   0  0  0  0  0  0  0  0  0  0  0  0
    3.2322    1.5705    0.2296 N   0  0  0  0  0  0  0  0  0  0  0  0
    2.5509    2.7028   -0.1070 N   0  0  0  0  0  0  0  0  0  0  0  0
    2.9398    3.3843   -1.1422 C   0  0  0  0  0  0  0  0  0  0  0  0
    2.2180    4.6324   -1.5229 C   0  0  0  0  0  0  0  0  0  0  0  0
    1.1263    5.0697   -0.7539 C   0  0  0  0  0  0  0  0  0  0  0  0
    0.6737    4.4016    0.3522 O   0  0  0  0  0  0  0  0  0  0  0  0
    0.4312    6.2337   -1.0810 C   0  0  0  0  0  0  0  0  0  0  0  0
    0.8284    6.9948   -2.1754 C   0  0  0  0  0  0  0  0  0  0  0  0
    1.9250    6.5828   -2.9373 C   0  0  0  0  0  0  0  0  0  0  0  0
    2.3650    7.4037   -4.0757 C   0  0  0  0  0  0  0  0  0  0  0  0
    1.8236    8.4699   -4.3747 O   0  0  0  0  0  0  0  0  0  0  0  0
    3.5004    6.8981   -4.8501 C   0  0  0  0  0  0  0  0  0  0  0  0
    4.0706    5.7442   -4.4760 C   0  0  0  0  0  0  0  0  0  0  0  0
    5.2052    5.2040   -5.2296 C   0  0  0  0  0  0  0  0  0  0  0  0
    6.5191    5.5487   -4.8804 C   0  0  0  0  0  0  0  0  0  0  0  0
    7.5963    5.0364   -5.6084 C   0  0  0  0  0  0  0  0  0  0  0  0
    7.3572    4.1838   -6.6806 C   0  0  0  0  0  0  0  0  0  0  0  0
    8.3898    3.6947   -7.3792 F   0  0  0  0  0  0  0  0  0  0  0  0
    6.0616    3.8304   -7.0386 C   0  0  0  0  0  0  0  0  0  0  0  0
    4.9831    4.3436   -6.3149 C   0  0  0  0  0  0  0  0  0  0  0  0
    3.6769    4.9700   -3.3979 O   0  0  0  0  0  0  0  0  0  0  0  0
    2.6168    5.3995   -2.6310 C   0  0  0  0  0  0  0  0  0  0  0  0
    3.5884   -0.4222    1.6182 C   0  0  0  0  0  0  0  0  0  0  0  0
    2.9259   -1.5168    2.1964 C   0  0  0  0  0  0  0  0  0  0  0  0
    3.6064   -2.7192    2.4172 C   0  0  0  0  0  0  0  0  0  0  0  0
    4.9518   -2.8312    2.0675 C   0  0  0  0  0  0  0  0  0  0  0  0
    5.6248   -1.7358    1.5282 C   0  0  0  0  0  0  0  0  0  0  0  0
    4.9529   -0.5263    1.3246 C   0  0  0  0  0  0  0  0  0  0  0  0
    3.9521    1.2226   -0.3903 H   0  0  0  0  0  0  0  0  0  0  0  0
    3.7994    3.0768   -1.7598 H   0  0  0  0  0  0  0  0  0  0  0  0
    1.1132    3.5197    0.3905 H   0  0  0  0  0  0  0  0  0  0  0  0
   -0.4160    6.5466   -0.4759 H   0  0  0  0  0  0  0  0  0  0  0  0
    0.2876    7.9049   -2.4296 H   0  0  0  0  0  0  0  0  0  0  0  0
    3.8281    7.4903   -5.6952 H   0  0  0  0  0  0  0  0  0  0  0  0
    6.7132    6.2117   -4.0394 H   0  0  0  0  0  0  0  0  0  0  0  0
    8.6179    5.2936   -5.3455 H   0  0  0  0  0  0  0  0  0  0  0  0
    5.8980    3.1614   -7.8780 H   0  0  0  0  0  0  0  0  0  0  0  0
    3.9719    4.0658   -6.6032 H   0  0  0  0  0  0  0  0  0  0  0  0
    1.8758   -1.4390    2.4751 H   0  0  0  0  0  0  0  0  0  0  0  0
    3.0884   -3.5682    2.8584 H   0  0  0  0  0  0  0  0  0  0  0  0
    5.4784   -3.7704    2.2291 H   0  0  0  0  0  0  0  0  0  0  0  0
    6.6782   -1.8237    1.2735 H   0  0  0  0  0  0  0  0  0  0  0  0
    5.5119    0.3330    0.9686 H   0  0  0  0  0  0  0  0  0  0  0  0
  1  2  2  0  0  0  0
  2  3  1  0  0  0  0
  2 25  1  0  0  0  0
  3  4  1  0  0  0  0
  3 31  1  0  0  0  0
  4  5  2  0  0  0  0
  5  6  1  0  0  0  0
  5 32  1  0  0  0  0
  6  7  1  0  0  0  0
  6 24  2  0  0  0  0
  7  8  1  0  0  0  0
  7  9  2  0  0  0  0
  8 33  1  0  0  0  0
  9 10  1  0  0  0  0
  9 34  1  0  0  0  0
 10 11  2  0  0  0  0
 10 35  1  0  0  0  0
 11 12  1  0  0  0  0
 11 24  1  0  0  0  0
 12 13  2  0  0  0  0
 12 14  1  0  0  0  0
 14 15  2  0  0  0  0
 14 36  1  0  0  0  0
 15 16  1  0  0  0  0
 15 23  1  0  0  0  0
 16 17  1  0  0  0  0
 16 22  2  0  0  0  0
 17 18  2  0  0  0  0
 17 37  1  0  0  0  0
 18 19  1  0  0  0  0
 18 38  1  0  0  0  0
 19 20  1  0  0  0  0
 19 21  2  0  0  0  0
 21 22  1  0  0  0  0
 21 39  1  0  0  0  0
 22 40  1  0  0  0  0
 23 24  1  0  0  0  0
 25 26  1  0  0  0  0
 25 30  2  0  0  0  0
 26 27  2  0  0  0  0
 26 41  1  0  0  0  0
 27 28  1  0  0  0  0
 27 42  1  0  0  0  0
 28 29  2  0  0  0  0
 28 43  1  0  0  0  0
 29 30  1  0  0  0  0
 29 44  1  0  0  0  0
 30 45  1  0  0  0  0
M  END
>  <Line_Number>
168


> <IC50>
1207

$$$$
