155512762.0
 OpenBabel09092522103D

 43 45  0  0  0  0  0  0  0  0999 V2000
    1.6583    0.7385    0.4785 O   0  0  0  0  0  0  0  0  0  0  0  0
    2.0792   -0.3373    0.0285 N   0  3  0  0  0  0  0  0  0  0  0  0
    1.7507   -0.8190   -1.0642 O   0  5  0  0  0  0  0  0  0  0  0  0
    3.0265   -1.1000    0.8559 C   0  0  0  0  0  0  0  0  0  0  0  0
    3.4372   -0.5861    2.0948 C   0  0  0  0  0  0  0  0  0  0  0  0
    4.3483   -1.3074    2.8756 C   0  0  0  0  0  0  0  0  0  0  0  0
    4.8361   -2.5427    2.4187 C   0  0  0  0  0  0  0  0  0  0  0  0
    6.0427   -3.4423    3.3985 S   0  0  0  0  0  0  0  0  0  0  0  0
    6.8521   -4.2102    2.4807 O   0  0  0  0  0  0  0  0  0  0  0  0
    6.6106   -2.4859    4.3265 O   0  0  0  0  0  0  0  0  0  0  0  0
    4.9881   -4.4776    4.2791 N   0  0  0  0  0  0  0  0  0  0  0  0
    5.5879   -5.4569    5.1868 N   0  0  0  0  0  0  0  0  0  0  0  0
    4.9193   -6.5496    5.4538 C   0  0  0  0  0  0  0  0  0  0  0  0
    3.6166   -6.9652    4.8090 C   0  0  0  0  0  0  0  0  0  0  0  0
    3.4179   -8.3143    4.4669 C   0  0  0  0  0  0  0  0  0  0  0  0
    2.2080   -8.7425    3.9159 C   0  0  0  0  0  0  0  0  0  0  0  0
    1.2059   -7.8184    3.6373 C   0  0  0  0  0  0  0  0  0  0  0  0
    1.3993   -6.4741    3.9415 C   0  0  0  0  0  0  0  0  0  0  0  0
    2.5836   -6.0563    4.5546 C   0  0  0  0  0  0  0  0  0  0  0  0
    5.5266   -7.5040    6.4618 C   0  0  0  0  0  0  0  0  0  0  0  0
    4.7124   -8.3089    7.2788 C   0  0  0  0  0  0  0  0  0  0  0  0
    5.2732   -9.2819    8.1118 C   0  0  0  0  0  0  0  0  0  0  0  0
    6.6545   -9.4184    8.1652 C   0  0  0  0  0  0  0  0  0  0  0  0
    7.2421  -10.3704    8.9439 O   0  0  0  0  0  0  0  0  0  0  0  0
    7.4795   -8.5840    7.4178 C   0  0  0  0  0  0  0  0  0  0  0  0
    6.9184   -7.6240    6.5659 C   0  0  0  0  0  0  0  0  0  0  0  0
    4.4294   -3.0523    1.1791 C   0  0  0  0  0  0  0  0  0  0  0  0
    3.5197   -2.3310    0.3957 C   0  0  0  0  0  0  0  0  0  0  0  0
    3.0690    0.3731    2.4570 H   0  0  0  0  0  0  0  0  0  0  0  0
    4.6816   -0.8922    3.8257 H   0  0  0  0  0  0  0  0  0  0  0  0
    4.3947   -3.8427    4.8207 H   0  0  0  0  0  0  0  0  0  0  0  0
    4.1953   -9.0562    4.6380 H   0  0  0  0  0  0  0  0  0  0  0  0
    2.0535   -9.7964    3.6982 H   0  0  0  0  0  0  0  0  0  0  0  0
    0.2739   -8.1457    3.1837 H   0  0  0  0  0  0  0  0  0  0  0  0
    0.6233   -5.7483    3.7114 H   0  0  0  0  0  0  0  0  0  0  0  0
    2.6664   -5.0137    4.8312 H   0  0  0  0  0  0  0  0  0  0  0  0
    3.6300   -8.2085    7.2603 H   0  0  0  0  0  0  0  0  0  0  0  0
    4.6201   -9.9228    8.6963 H   0  0  0  0  0  0  0  0  0  0  0  0
    6.5499  -10.8901    9.3852 H   0  0  0  0  0  0  0  0  0  0  0  0
    8.5591   -8.6919    7.4850 H   0  0  0  0  0  0  0  0  0  0  0  0
    7.5760   -6.9938    5.9707 H   0  0  0  0  0  0  0  0  0  0  0  0
    4.8204   -4.0013    0.8184 H   0  0  0  0  0  0  0  0  0  0  0  0
    3.2159   -2.7340   -0.5691 H   0  0  0  0  0  0  0  0  0  0  0  0
  1  2  2  0  0  0  0
  2  3  1  0  0  0  0
  2  4  1  0  0  0  0
  4  5  1  0  0  0  0
  4 28  2  0  0  0  0
  5  6  2  0  0  0  0
  5 29  1  0  0  0  0
  6  7  1  0  0  0  0
  6 30  1  0  0  0  0
  7  8  1  0  0  0  0
  7 27  2  0  0  0  0
  8  9  2  0  0  0  0
  8 10  2  0  0  0  0
  8 11  1  0  0  0  0
 11 12  1  0  0  0  0
 11 31  1  0  0  0  0
 12 13  2  0  0  0  0
 13 14  1  0  0  0  0
 13 20  1  0  0  0  0
 14 15  1  0  0  0  0
 14 19  2  0  0  0  0
 15 16  2  0  0  0  0
 15 32  1  0  0  0  0
 16 17  1  0  0  0  0
 16 33  1  0  0  0  0
 17 18  2  0  0  0  0
 17 34  1  0  0  0  0
 18 19  1  0  0  0  0
 18 35  1  0  0  0  0
 19 36  1  0  0  0  0
 20 21  1  0  0  0  0
 20 26  2  0  0  0  0
 21 22  2  0  0  0  0
 21 37  1  0  0  0  0
 22 23  1  0  0  0  0
 22 38  1  0  0  0  0
 23 24  1  0  0  0  0
 23 25  2  0  0  0  0
 24 39  1  0  0  0  0
 25 26  1  0  0  0  0
 25 40  1  0  0  0  0
 26 41  1  0  0  0  0
 27 28  1  0  0  0  0
 27 42  1  0  0  0  0
 28 43  1  0  0  0  0
M  CHG  2   2   1   3  -1
M  END
>  <Line_Number>
169


> <IC50>
3900

$$$$
