17133586.0
 OpenBabel09092522103D

 34 35  0  0  0  0  0  0  0  0999 V2000
    1.8305    0.9925   -0.5530 C   0  0  0  0  0  0  0  0  0  0  0  0
    2.4731   -0.1539   -0.0082 O   0  0  0  0  0  0  0  0  0  0  0  0
    3.1678   -0.9481   -0.8784 C   0  0  0  0  0  0  0  0  0  0  0  0
    3.2732   -0.7587   -2.2571 C   0  0  0  0  0  0  0  0  0  0  0  0
    4.0140   -1.6551   -3.0414 C   0  0  0  0  0  0  0  0  0  0  0  0
    4.6546   -2.7502   -2.4480 C   0  0  0  0  0  0  0  0  0  0  0  0
    5.4564   -3.7252   -3.2385 C   0  0  0  0  0  0  0  0  0  0  0  0
    6.3844   -4.3465   -2.7240 O   0  0  0  0  0  0  0  0  0  0  0  0
    5.0797   -3.9094   -4.5535 N   0  0  0  0  0  0  0  0  0  0  0  0
    5.7226   -4.9078   -5.2986 N   0  0  0  0  0  0  0  0  0  0  0  0
    5.2801   -5.1289   -6.5862 C   0  0  0  0  0  0  0  0  0  0  0  0
    4.3365   -4.5091   -7.0736 O   0  0  0  0  0  0  0  0  0  0  0  0
    6.0019   -6.1465   -7.3958 C   0  0  0  0  0  0  0  0  0  0  0  0
    6.6643   -7.2362   -6.8194 C   0  0  0  0  0  0  0  0  0  0  0  0
    7.2809   -8.1807   -7.6440 C   0  0  0  0  0  0  0  0  0  0  0  0
    8.0762   -9.5345   -6.9389 Cl  0  0  0  0  0  0  0  0  0  0  0  0
    7.2496   -8.0533   -9.0319 C   0  0  0  0  0  0  0  0  0  0  0  0
    6.5862   -6.9695   -9.5984 C   0  0  0  0  0  0  0  0  0  0  0  0
    6.5313   -6.8041  -11.3101 Cl  0  0  0  0  0  0  0  0  0  0  0  0
    5.9595   -6.0209   -8.7924 C   0  0  0  0  0  0  0  0  0  0  0  0
    4.5640   -2.9278   -1.0633 C   0  0  0  0  0  0  0  0  0  0  0  0
    3.8177   -2.0349   -0.2880 C   0  0  0  0  0  0  0  0  0  0  0  0
    1.3179    1.5104    0.2636 H   0  0  0  0  0  0  0  0  0  0  0  0
    1.0742    0.7090   -1.2923 H   0  0  0  0  0  0  0  0  0  0  0  0
    2.5619    1.6861   -0.9810 H   0  0  0  0  0  0  0  0  0  0  0  0
    2.7969    0.0807   -2.7538 H   0  0  0  0  0  0  0  0  0  0  0  0
    4.0989   -1.4620   -4.1072 H   0  0  0  0  0  0  0  0  0  0  0  0
    4.2138   -3.5480   -4.9510 H   0  0  0  0  0  0  0  0  0  0  0  0
    6.5727   -5.2930   -4.8902 H   0  0  0  0  0  0  0  0  0  0  0  0
    6.6792   -7.3813   -5.7419 H   0  0  0  0  0  0  0  0  0  0  0  0
    7.7282   -8.7953   -9.6642 H   0  0  0  0  0  0  0  0  0  0  0  0
    5.4331   -5.1833   -9.2478 H   0  0  0  0  0  0  0  0  0  0  0  0
    5.0684   -3.7632   -0.5820 H   0  0  0  0  0  0  0  0  0  0  0  0
    3.7467   -2.1856    0.7871 H   0  0  0  0  0  0  0  0  0  0  0  0
  1  2  1  0  0  0  0
  1 23  1  0  0  0  0
  1 24  1  0  0  0  0
  1 25  1  0  0  0  0
  2  3  1  0  0  0  0
  3  4  1  0  0  0  0
  3 22  2  0  0  0  0
  4  5  2  0  0  0  0
  4 26  1  0  0  0  0
  5  6  1  0  0  0  0
  5 27  1  0  0  0  0
  6  7  1  0  0  0  0
  6 21  2  0  0  0  0
  7  8  2  0  0  0  0
  7  9  1  0  0  0  0
  9 10  1  0  0  0  0
  9 28  1  0  0  0  0
 10 11  1  0  0  0  0
 10 29  1  0  0  0  0
 11 12  2  0  0  0  0
 11 13  1  0  0  0  0
 13 14  1  0  0  0  0
 13 20  2  0  0  0  0
 14 15  2  0  0  0  0
 14 30  1  0  0  0  0
 15 16  1  0  0  0  0
 15 17  1  0  0  0  0
 17 18  2  0  0  0  0
 17 31  1  0  0  0  0
 18 19  1  0  0  0  0
 18 20  1  0  0  0  0
 20 32  1  0  0  0  0
 21 22  1  0  0  0  0
 21 33  1  0  0  0  0
 22 34  1  0  0  0  0
M  END
>  <Line_Number>
171


> <IC50>
870

$$$$
