9594754.0
 OpenBabel09092522103D

 36 38  0  0  0  0  0  0  0  0999 V2000
    2.4354   -0.0784   -0.0706 C   0  0  0  0  0  0  0  0  0  0  0  0
    0.9361   -0.0225   -0.0853 C   0  0  0  0  0  0  0  0  0  0  0  0
    0.2713    1.2061   -0.1595 C   0  0  0  0  0  0  0  0  0  0  0  0
   -1.1217    1.2516   -0.1824 C   0  0  0  0  0  0  0  0  0  0  0  0
   -1.8635    0.0667   -0.1291 C   0  0  0  0  0  0  0  0  0  0  0  0
   -3.3398    0.1185   -0.1229 C   0  0  0  0  0  0  0  0  0  0  0  0
   -3.9503    1.2544   -0.2222 N   0  0  0  0  0  0  0  0  0  0  0  0
   -5.3102    1.2335   -0.1248 N   0  0  0  0  0  0  0  0  0  0  0  0
   -6.0156    2.3962   -0.2127 C   0  0  0  0  0  0  0  0  0  0  0  0
   -5.6336    3.4729   -0.8643 N   0  0  0  0  0  0  0  0  0  0  0  0
   -6.5431    4.5013   -0.7068 C   0  0  0  0  0  0  0  0  0  0  0  0
   -6.3344    5.7790   -1.3757 C   0  0  0  0  0  0  0  0  0  0  0  0
   -5.6746    5.7946   -2.6148 C   0  0  0  0  0  0  0  0  0  0  0  0
   -5.4547    6.9958   -3.2932 C   0  0  0  0  0  0  0  0  0  0  0  0
   -5.8844    8.1925   -2.7282 C   0  0  0  0  0  0  0  0  0  0  0  0
   -5.5794    9.8218   -3.6369 Br  0  0  0  0  0  0  0  0  0  0  0  0
   -6.5313    8.1983   -1.4928 C   0  0  0  0  0  0  0  0  0  0  0  0
   -6.7571    6.9928   -0.8179 C   0  0  0  0  0  0  0  0  0  0  0  0
   -7.6343    4.1902    0.0778 C   0  0  0  0  0  0  0  0  0  0  0  0
   -7.5361    2.5545    0.5882 S   0  0  0  0  0  0  0  0  0  0  0  0
   -1.2126   -1.1655   -0.0526 C   0  0  0  0  0  0  0  0  0  0  0  0
    0.1852   -1.2065   -0.0323 C   0  0  0  0  0  0  0  0  0  0  0  0
    2.8736    0.9255   -0.0897 H   0  0  0  0  0  0  0  0  0  0  0  0
    2.8002   -0.6200   -0.9490 H   0  0  0  0  0  0  0  0  0  0  0  0
    2.7872   -0.5788    0.8368 H   0  0  0  0  0  0  0  0  0  0  0  0
    0.8292    2.1390   -0.1995 H   0  0  0  0  0  0  0  0  0  0  0  0
   -1.6254    2.2153   -0.2370 H   0  0  0  0  0  0  0  0  0  0  0  0
   -3.8857   -0.8350   -0.0226 H   0  0  0  0  0  0  0  0  0  0  0  0
   -5.7371    0.5031    0.4381 H   0  0  0  0  0  0  0  0  0  0  0  0
   -5.3277    4.8614   -3.0568 H   0  0  0  0  0  0  0  0  0  0  0  0
   -4.9454    6.9807   -4.2533 H   0  0  0  0  0  0  0  0  0  0  0  0
   -6.8568    9.1330   -1.0442 H   0  0  0  0  0  0  0  0  0  0  0  0
   -7.2449    7.0216    0.1529 H   0  0  0  0  0  0  0  0  0  0  0  0
   -8.4796    4.8058    0.3467 H   0  0  0  0  0  0  0  0  0  0  0  0
   -1.7749   -2.0937   -0.0077 H   0  0  0  0  0  0  0  0  0  0  0  0
    0.6905   -2.1684    0.0260 H   0  0  0  0  0  0  0  0  0  0  0  0
  1  2  1  0  0  0  0
  1 23  1  0  0  0  0
  1 24  1  0  0  0  0
  1 25  1  0  0  0  0
  2  3  1  0  0  0  0
  2 22  2  0  0  0  0
  3  4  2  0  0  0  0
  3 26  1  0  0  0  0
  4  5  1  0  0  0  0
  4 27  1  0  0  0  0
  5  6  1  0  0  0  0
  5 21  2  0  0  0  0
  6  7  2  0  0  0  0
  6 28  1  0  0  0  0
  7  8  1  0  0  0  0
  8  9  1  0  0  0  0
  8 29  1  0  0  0  0
  9 10  2  0  0  0  0
  9 20  1  0  0  0  0
 10 11  1  0  0  0  0
 11 12  1  0  0  0  0
 11 19  2  0  0  0  0
 12 13  1  0  0  0  0
 12 18  2  0  0  0  0
 13 14  2  0  0  0  0
 13 30  1  0  0  0  0
 14 15  1  0  0  0  0
 14 31  1  0  0  0  0
 15 16  1  0  0  0  0
 15 17  2  0  0  0  0
 17 18  1  0  0  0  0
 17 32  1  0  0  0  0
 18 33  1  0  0  0  0
 19 20  1  0  0  0  0
 19 34  1  0  0  0  0
 21 22  1  0  0  0  0
 21 35  1  0  0  0  0
 22 36  1  0  0  0  0
M  END
>  <Line_Number>
172


> <IC50>
110

$$$$
