386828
 OpenBabel09092522103D

 51 54  0  0  0  0  0  0  0  0999 V2000
    0.9745    0.5380    2.0014 C   0  0  0  0  0  0  0  0  0  0  0  0
    2.4087    0.4837    1.9290 N   0  0  0  0  0  0  0  0  0  0  0  0
    3.0881    0.8762    0.8000 C   0  0  0  0  0  0  0  0  0  0  0  0
    2.5328    1.2664   -0.2178 O   0  0  0  0  0  0  0  0  0  0  0  0
    4.5735    0.7962    0.8980 C   0  0  0  0  0  0  0  0  0  0  0  0
    5.3083    0.8049   -0.2280 C   0  0  0  0  0  0  0  0  0  0  0  0
    6.6939    0.7407   -0.2955 N   0  0  0  0  0  0  0  0  0  0  0  0
    7.3340    0.7526   -1.6298 C   0  0  0  0  0  0  0  0  0  0  0  0
    7.1112   -0.3859   -2.5993 C   0  0  0  0  0  0  0  0  0  0  0  0
    8.4718   -0.1648   -2.0247 C   0  0  0  0  0  0  0  0  0  0  0  0
    7.4406    0.8659    0.9074 C   0  0  0  0  0  0  0  0  0  0  0  0
    8.8281    1.0453    0.9206 C   0  0  0  0  0  0  0  0  0  0  0  0
    9.5738    1.1521    2.1078 C   0  0  0  0  0  0  0  0  0  0  0  0
   10.9334    1.3717    2.0310 N   0  0  0  0  0  0  0  0  0  0  0  0
   11.6611    2.1174    3.0685 C   0  0  0  0  0  0  0  0  0  0  0  0
   12.6543    3.0741    2.3793 C   0  0  0  0  0  0  0  0  0  0  0  0
   13.5172    2.3686    1.4163 N   0  0  0  0  0  0  0  0  0  0  0  0
   14.8807    2.5536    1.4979 C   0  0  0  0  0  0  0  0  0  0  0  0
   15.7981    1.8481    0.5325 C   0  0  0  0  0  0  0  0  0  0  0  0
   15.3871    3.2767    2.3595 O   0  0  0  0  0  0  0  0  0  0  0  0
   12.7756    1.5687    0.4257 C   0  0  0  0  0  0  0  0  0  0  0  0
   11.7864    0.6076    1.1100 C   0  0  0  0  0  0  0  0  0  0  0  0
    8.8595    1.0855    3.3147 C   0  0  0  0  0  0  0  0  0  0  0  0
    9.5014    1.1580    4.4913 F   0  0  0  0  0  0  0  0  0  0  0  0
    7.4817    0.9255    3.3464 C   0  0  0  0  0  0  0  0  0  0  0  0
    6.7797    0.8258    2.1446 C   0  0  0  0  0  0  0  0  0  0  0  0
    5.3079    0.6995    2.1830 C   0  0  0  0  0  0  0  0  0  0  0  0
    4.7267    0.5425    3.2539 O   0  0  0  0  0  0  0  0  0  0  0  0
    0.6496    0.1154    2.9563 H   0  0  0  0  0  0  0  0  0  0  0  0
    0.5480   -0.0361    1.1748 H   0  0  0  0  0  0  0  0  0  0  0  0
    0.6516    1.5790    1.9235 H   0  0  0  0  0  0  0  0  0  0  0  0
    2.9426    0.2846    2.7770 H   0  0  0  0  0  0  0  0  0  0  0  0
    4.8269    0.8609   -1.2021 H   0  0  0  0  0  0  0  0  0  0  0  0
    7.3787    1.7583   -2.0430 H   0  0  0  0  0  0  0  0  0  0  0  0
    6.9601   -0.1478   -3.6446 H   0  0  0  0  0  0  0  0  0  0  0  0
    6.5731   -1.2627   -2.2577 H   0  0  0  0  0  0  0  0  0  0  0  0
    9.2377    0.2363   -2.6786 H   0  0  0  0  0  0  0  0  0  0  0  0
    8.8381   -0.8949   -1.3133 H   0  0  0  0  0  0  0  0  0  0  0  0
    9.3538    1.1666   -0.0211 H   0  0  0  0  0  0  0  0  0  0  0  0
   12.1967    1.4122    3.7148 H   0  0  0  0  0  0  0  0  0  0  0  0
   10.9948    2.7224    3.6923 H   0  0  0  0  0  0  0  0  0  0  0  0
   13.2362    3.6006    3.1414 H   0  0  0  0  0  0  0  0  0  0  0  0
   12.1000    3.8313    1.8094 H   0  0  0  0  0  0  0  0  0  0  0  0
   15.3073    1.2547   -0.2320 H   0  0  0  0  0  0  0  0  0  0  0  0
   16.4518    1.1830    1.1050 H   0  0  0  0  0  0  0  0  0  0  0  0
   16.4067    2.6012    0.0231 H   0  0  0  0  0  0  0  0  0  0  0  0
   13.4272    0.9937   -0.2304 H   0  0  0  0  0  0  0  0  0  0  0  0
   12.2241    2.2781   -0.2029 H   0  0  0  0  0  0  0  0  0  0  0  0
   12.3397   -0.1455    1.6854 H   0  0  0  0  0  0  0  0  0  0  0  0
   11.2215    0.0631    0.3458 H   0  0  0  0  0  0  0  0  0  0  0  0
    6.9716    0.8874    4.3037 H   0  0  0  0  0  0  0  0  0  0  0  0
  1  2  1  0  0  0  0
  1 29  1  0  0  0  0
  1 30  1  0  0  0  0
  1 31  1  0  0  0  0
  2  3  1  0  0  0  0
  2 32  1  0  0  0  0
  3  4  2  0  0  0  0
  3  5  1  0  0  0  0
  5  6  2  0  0  0  0
  5 27  1  0  0  0  0
  6  7  1  0  0  0  0
  6 33  1  0  0  0  0
  7  8  1  0  0  0  0
  7 11  1  0  0  0  0
  8  9  1  0  0  0  0
  8 10  1  0  0  0  0
  8 34  1  0  0  0  0
  9 10  1  0  0  0  0
  9 35  1  0  0  0  0
  9 36  1  0  0  0  0
 10 37  1  0  0  0  0
 10 38  1  0  0  0  0
 11 12  1  0  0  0  0
 11 26  2  0  0  0  0
 12 13  2  0  0  0  0
 12 39  1  0  0  0  0
 13 14  1  0  0  0  0
 13 23  1  0  0  0  0
 14 15  1  0  0  0  0
 14 22  1  0  0  0  0
 15 16  1  0  0  0  0
 15 40  1  0  0  0  0
 15 41  1  0  0  0  0
 16 17  1  0  0  0  0
 16 42  1  0  0  0  0
 16 43  1  0  0  0  0
 17 18  1  0  0  0  0
 17 21  1  0  0  0  0
 18 19  1  0  0  0  0
 18 20  2  0  0  0  0
 19 44  1  0  0  0  0
 19 45  1  0  0  0  0
 19 46  1  0  0  0  0
 21 22  1  0  0  0  0
 21 47  1  0  0  0  0
 21 48  1  0  0  0  0
 22 49  1  0  0  0  0
 22 50  1  0  0  0  0
 23 24  1  0  0  0  0
 23 25  2  0  0  0  0
 25 26  1  0  0  0  0
 25 51  1  0  0  0  0
 26 27  1  0  0  0  0
 27 28  2  0  0  0  0
M  END
>  <Line_Number>
175


> <IC50>
1290

$$$$
