386839
 OpenBabel09092522103D

 50 53  0  0  1  0  0  0  0  0999 V2000
    1.0156    0.0753    0.7061 C   0  0  0  0  0  0  0  0  0  0  0  0
    2.4473   -0.0283    0.7664 N   0  0  0  0  0  0  0  0  0  0  0  0
    3.0914   -1.2181    0.5506 C   0  0  0  0  0  0  0  0  0  0  0  0
    2.4948   -2.2672    0.3270 O   0  0  0  0  0  0  0  0  0  0  0  0
    4.5770   -1.1594    0.5993 C   0  0  0  0  0  0  0  0  0  0  0  0
    5.2636   -2.2927    0.3869 C   0  0  0  0  0  0  0  0  0  0  0  0
    6.6379   -2.4217    0.3875 N   0  0  0  0  0  0  0  0  0  0  0  0
    7.4568   -1.2935    0.6366 C   0  0  0  0  0  0  0  0  0  0  0  0
    8.8759   -1.3792    0.6621 C   0  0  0  0  0  0  0  0  0  0  0  0
    9.6951   -0.2404    0.8618 C   0  0  0  0  0  0  0  0  0  0  0  0
   11.0874   -0.2577    0.9040 N   0  0  0  0  0  0  0  0  0  0  0  0
   11.8637   -1.4823    1.1456 C   0  0  0  0  0  0  0  0  0  0  0  0
   13.1887   -1.1157    1.8540 C   0  0  0  0  0  0  0  0  0  0  0  0
   13.9886   -0.1149    1.1121 N   0  0  0  0  0  0  0  0  0  0  0  0
   15.1874    0.2338    1.8693 C   0  0  0  0  0  0  0  0  0  0  0  0
   13.1554    1.0872    0.8693 C   0  0  0  0  0  0  0  0  0  0  0  0
   11.8399    0.7521    0.1273 C   0  0  0  0  0  0  0  0  0  0  0  0
    9.0077    0.9750    1.1078 C   0  0  0  0  0  0  0  0  0  0  0  0
    9.6980    2.0857    1.4176 F   0  0  0  0  0  0  0  0  0  0  0  0
    7.6238    1.0819    1.1132 C   0  0  0  0  0  0  0  0  0  0  0  0
    6.8521   -0.0496    0.8669 C   0  0  0  0  0  0  0  0  0  0  0  0
    5.3733    0.0675    0.8500 C   0  0  0  0  0  0  0  0  0  0  0  0
    4.8353    1.1599    1.0272 O   0  0  0  0  0  0  0  0  0  0  0  0
    9.4983   -2.5962    0.4333 O   0  0  0  0  0  0  0  0  0  0  0  0
    8.6688   -3.7087    0.7808 C   0  0  0  0  0  0  0  0  0  0  0  0
    7.3464   -3.6566    0.0212 C   0  0  2  0  0  0  0  0  0  0  0  0
    7.5605   -3.7099   -1.4947 C   0  0  0  0  0  0  0  0  0  0  0  0
    0.7354    1.1292    0.7609 H   0  0  0  0  0  0  0  0  0  0  0  0
    0.5818   -0.4734    1.5463 H   0  0  0  0  0  0  0  0  0  0  0  0
    0.6590   -0.3588   -0.2322 H   0  0  0  0  0  0  0  0  0  0  0  0
    3.0052    0.8049    0.9622 H   0  0  0  0  0  0  0  0  0  0  0  0
    4.7421   -3.2281    0.1882 H   0  0  0  0  0  0  0  0  0  0  0  0
   12.0724   -1.9960    0.1983 H   0  0  0  0  0  0  0  0  0  0  0  0
   11.3376   -2.1699    1.8160 H   0  0  0  0  0  0  0  0  0  0  0  0
   13.7743   -2.0330    1.9860 H   0  0  0  0  0  0  0  0  0  0  0  0
   12.9459   -0.7337    2.8557 H   0  0  0  0  0  0  0  0  0  0  0  0
   15.8113   -0.6538    2.0216 H   0  0  0  0  0  0  0  0  0  0  0  0
   14.9512    0.6607    2.8507 H   0  0  0  0  0  0  0  0  0  0  0  0
   15.7946    0.9566    1.3143 H   0  0  0  0  0  0  0  0  0  0  0  0
   13.7195    1.8090    0.2674 H   0  0  0  0  0  0  0  0  0  0  0  0
   12.9051    1.5749    1.8220 H   0  0  0  0  0  0  0  0  0  0  0  0
   12.0680    0.3471   -0.8682 H   0  0  0  0  0  0  0  0  0  0  0  0
   11.2873    1.6792   -0.0382 H   0  0  0  0  0  0  0  0  0  0  0  0
    7.1680    2.0453    1.3206 H   0  0  0  0  0  0  0  0  0  0  0  0
    8.5112   -3.7172    1.8685 H   0  0  0  0  0  0  0  0  0  0  0  0
    9.2188   -4.6226    0.5296 H   0  0  0  0  0  0  0  0  0  0  0  0
    6.7467   -4.5257    0.3208 H   0  0  0  0  0  0  0  0  0  0  0  0
    8.1540   -2.8639   -1.8573 H   0  0  0  0  0  0  0  0  0  0  0  0
    6.6027   -3.6854   -2.0245 H   0  0  0  0  0  0  0  0  0  0  0  0
    8.0812   -4.6308   -1.7762 H   0  0  0  0  0  0  0  0  0  0  0  0
  1  2  1  0  0  0  0
  1 28  1  0  0  0  0
  1 29  1  0  0  0  0
  1 30  1  0  0  0  0
  2  3  1  0  0  0  0
  2 31  1  0  0  0  0
  3  4  2  0  0  0  0
  3  5  1  0  0  0  0
  5  6  2  0  0  0  0
  5 22  1  0  0  0  0
  6  7  1  0  0  0  0
  6 32  1  0  0  0  0
  7  8  1  0  0  0  0
  7 26  1  0  0  0  0
  8  9  1  0  0  0  0
  8 21  2  0  0  0  0
  9 10  2  0  0  0  0
  9 24  1  0  0  0  0
 10 11  1  0  0  0  0
 10 18  1  0  0  0  0
 11 12  1  0  0  0  0
 11 17  1  0  0  0  0
 12 13  1  0  0  0  0
 12 33  1  0  0  0  0
 12 34  1  0  0  0  0
 13 14  1  0  0  0  0
 13 35  1  0  0  0  0
 13 36  1  0  0  0  0
 14 15  1  0  0  0  0
 14 16  1  0  0  0  0
 15 37  1  0  0  0  0
 15 38  1  0  0  0  0
 15 39  1  0  0  0  0
 16 17  1  0  0  0  0
 16 40  1  0  0  0  0
 16 41  1  0  0  0  0
 17 42  1  0  0  0  0
 17 43  1  0  0  0  0
 18 19  1  0  0  0  0
 18 20  2  0  0  0  0
 20 21  1  0  0  0  0
 20 44  1  0  0  0  0
 21 22  1  0  0  0  0
 22 23  2  0  0  0  0
 24 25  1  0  0  0  0
 25 26  1  0  0  0  0
 25 45  1  0  0  0  0
 25 46  1  0  0  0  0
 26 27  1  0  0  0  0
 26 47  1  1  0  0  0
 27 48  1  0  0  0  0
 27 49  1  0  0  0  0
 27 50  1  0  0  0  0
M  END
>  <Line_Number>
177


> <IC50>
2890

$$$$
