386829
 OpenBabel09092522103D

 58 62  0  0  0  0  0  0  0  0999 V2000
    1.0015   -0.4539    2.0557 C   0  0  0  0  0  0  0  0  0  0  0  0
    2.4344   -0.4793    1.9532 N   0  0  0  0  0  0  0  0  0  0  0  0
    3.1180    0.3376    1.0889 C   0  0  0  0  0  0  0  0  0  0  0  0
    2.5636    1.1171    0.3183 O   0  0  0  0  0  0  0  0  0  0  0  0
    4.6031    0.2209    1.1524 C   0  0  0  0  0  0  0  0  0  0  0  0
    5.3345    0.7589    0.1681 C   0  0  0  0  0  0  0  0  0  0  0  0
    6.7204    0.7283    0.0821 N   0  0  0  0  0  0  0  0  0  0  0  0
    7.3539    1.3673   -1.0895 C   0  0  0  0  0  0  0  0  0  0  0  0
    7.1132    0.8280   -2.4804 C   0  0  0  0  0  0  0  0  0  0  0  0
    8.4755    0.7291   -1.8763 C   0  0  0  0  0  0  0  0  0  0  0  0
    7.4689    0.2659    1.1957 C   0  0  0  0  0  0  0  0  0  0  0  0
    8.8580    0.4120    1.2846 C   0  0  0  0  0  0  0  0  0  0  0  0
    9.6041   -0.0500    2.3801 C   0  0  0  0  0  0  0  0  0  0  0  0
   10.9598    0.2149    2.4218 N   0  0  0  0  0  0  0  0  0  0  0  0
   11.6506    0.3269    3.7033 C   0  0  0  0  0  0  0  0  0  0  0  0
   12.6811    1.4531    3.6021 C   0  0  0  0  0  0  0  0  0  0  0  0
   13.5930    1.3049    2.4562 N   0  0  0  0  0  0  0  0  0  0  0  0
   14.9698    1.5347    2.4693 C   0  0  0  0  0  0  0  0  0  0  0  0
   15.6816    1.3255    1.4876 O   0  0  0  0  0  0  0  0  0  0  0  0
   15.6385    1.9932    3.7221 C   0  0  0  0  0  0  0  0  0  0  0  0
   16.8689    1.4226    4.0688 C   0  0  0  0  0  0  0  0  0  0  0  0
   17.4656    1.7360    5.2925 C   0  0  0  0  0  0  0  0  0  0  0  0
   16.8280    2.6036    6.1796 C   0  0  0  0  0  0  0  0  0  0  0  0
   15.6367    3.2235    5.8120 C   0  0  0  0  0  0  0  0  0  0  0  0
   15.0756    2.9617    4.5624 C   0  0  0  0  0  0  0  0  0  0  0  0
   12.9260    1.0325    1.1700 C   0  0  0  0  0  0  0  0  0  0  0  0
   11.8502   -0.0690    1.2796 C   0  0  0  0  0  0  0  0  0  0  0  0
    8.8897   -0.6724    3.4195 C   0  0  0  0  0  0  0  0  0  0  0  0
    9.5293   -1.1526    4.4984 F   0  0  0  0  0  0  0  0  0  0  0  0
    7.5098   -0.8171    3.3814 C   0  0  0  0  0  0  0  0  0  0  0  0
    6.8061   -0.3427    2.2740 C   0  0  0  0  0  0  0  0  0  0  0  0
    5.3322   -0.4556    2.2532 C   0  0  0  0  0  0  0  0  0  0  0  0
    4.7473   -1.0810    3.1345 O   0  0  0  0  0  0  0  0  0  0  0  0
    0.6826   -1.2773    2.6993 H   0  0  0  0  0  0  0  0  0  0  0  0
    0.5602   -0.5642    1.0617 H   0  0  0  0  0  0  0  0  0  0  0  0
    0.6919    0.5003    2.4892 H   0  0  0  0  0  0  0  0  0  0  0  0
    2.9684   -1.0232    2.6321 H   0  0  0  0  0  0  0  0  0  0  0  0
    4.8588    1.2521   -0.6735 H   0  0  0  0  0  0  0  0  0  0  0  0
    7.3955    2.4496   -0.9831 H   0  0  0  0  0  0  0  0  0  0  0  0
    6.9658    1.5379   -3.2845 H   0  0  0  0  0  0  0  0  0  0  0  0
    6.5563   -0.0957   -2.5895 H   0  0  0  0  0  0  0  0  0  0  0  0
    9.2537    1.3803   -2.2576 H   0  0  0  0  0  0  0  0  0  0  0  0
    8.8251   -0.2565   -1.5910 H   0  0  0  0  0  0  0  0  0  0  0  0
    9.3847    0.9632    0.5128 H   0  0  0  0  0  0  0  0  0  0  0  0
   12.1430   -0.6203    3.9527 H   0  0  0  0  0  0  0  0  0  0  0  0
   10.9742    0.5956    4.5219 H   0  0  0  0  0  0  0  0  0  0  0  0
   13.2124    1.4665    4.5514 H   0  0  0  0  0  0  0  0  0  0  0  0
   12.1662    2.4145    3.4678 H   0  0  0  0  0  0  0  0  0  0  0  0
   17.3580    0.7245    3.3923 H   0  0  0  0  0  0  0  0  0  0  0  0
   18.4203    1.2908    5.5607 H   0  0  0  0  0  0  0  0  0  0  0  0
   17.2676    2.8088    7.1524 H   0  0  0  0  0  0  0  0  0  0  0  0
   15.1395    3.9051    6.4976 H   0  0  0  0  0  0  0  0  0  0  0  0
   14.1720    3.4899    4.2731 H   0  0  0  0  0  0  0  0  0  0  0  0
   13.6528    0.7632    0.3972 H   0  0  0  0  0  0  0  0  0  0  0  0
   12.4526    1.9724    0.8587 H   0  0  0  0  0  0  0  0  0  0  0  0
   12.3373   -1.0385    1.4459 H   0  0  0  0  0  0  0  0  0  0  0  0
   11.3137   -0.1429    0.3281 H   0  0  0  0  0  0  0  0  0  0  0  0
    7.0010   -1.2833    4.2199 H   0  0  0  0  0  0  0  0  0  0  0  0
  1  2  1  0  0  0  0
  1 34  1  0  0  0  0
  1 35  1  0  0  0  0
  1 36  1  0  0  0  0
  2  3  1  0  0  0  0
  2 37  1  0  0  0  0
  3  4  2  0  0  0  0
  3  5  1  0  0  0  0
  5  6  2  0  0  0  0
  5 32  1  0  0  0  0
  6  7  1  0  0  0  0
  6 38  1  0  0  0  0
  7  8  1  0  0  0  0
  7 11  1  0  0  0  0
  8  9  1  0  0  0  0
  8 10  1  0  0  0  0
  8 39  1  0  0  0  0
  9 10  1  0  0  0  0
  9 40  1  0  0  0  0
  9 41  1  0  0  0  0
 10 42  1  0  0  0  0
 10 43  1  0  0  0  0
 11 12  1  0  0  0  0
 11 31  2  0  0  0  0
 12 13  2  0  0  0  0
 12 44  1  0  0  0  0
 13 14  1  0  0  0  0
 13 28  1  0  0  0  0
 14 15  1  0  0  0  0
 14 27  1  0  0  0  0
 15 16  1  0  0  0  0
 15 45  1  0  0  0  0
 15 46  1  0  0  0  0
 16 17  1  0  0  0  0
 16 47  1  0  0  0  0
 16 48  1  0  0  0  0
 17 18  1  0  0  0  0
 17 26  1  0  0  0  0
 18 19  2  0  0  0  0
 18 20  1  0  0  0  0
 20 21  1  0  0  0  0
 20 25  2  0  0  0  0
 21 22  2  0  0  0  0
 21 49  1  0  0  0  0
 22 23  1  0  0  0  0
 22 50  1  0  0  0  0
 23 24  2  0  0  0  0
 23 51  1  0  0  0  0
 24 25  1  0  0  0  0
 24 52  1  0  0  0  0
 25 53  1  0  0  0  0
 26 27  1  0  0  0  0
 26 54  1  0  0  0  0
 26 55  1  0  0  0  0
 27 56  1  0  0  0  0
 27 57  1  0  0  0  0
 28 29  1  0  0  0  0
 28 30  2  0  0  0  0
 30 31  1  0  0  0  0
 30 58  1  0  0  0  0
 31 32  1  0  0  0  0
 32 33  2  0  0  0  0
M  END
>  <Line_Number>
178


> <IC50>
2495800

$$$$
