12958458.0
 OpenBabel09092522103D

 21 21  0  0  0  0  0  0  0  0999 V2000
    0.9495   -0.0043    0.0160 C   0  0  0  0  0  0  0  0  0  0  0  0
    2.4697   -0.0624    0.0014 C   0  0  0  0  0  0  0  0  0  0  0  0
    2.9983   -0.1891   -1.4043 C   0  0  0  0  0  0  0  0  0  0  0  0
    3.2952    0.9624   -2.1570 C   0  0  0  0  0  0  0  0  0  0  0  0
    3.7391    0.8645   -3.4821 C   0  0  0  0  0  0  0  0  0  0  0  0
    3.8838   -0.3906   -4.0610 C   0  0  0  0  0  0  0  0  0  0  0  0
    4.3006   -0.5515   -5.3527 O   0  0  0  0  0  0  0  0  0  0  0  0
    3.5962   -1.5348   -3.3261 C   0  0  0  0  0  0  0  0  0  0  0  0
    3.7321   -2.7761   -3.8899 O   0  0  0  0  0  0  0  0  0  0  0  0
    3.1548   -1.4367   -2.0109 C   0  0  0  0  0  0  0  0  0  0  0  0
    2.8658   -2.5826   -1.3225 O   0  0  0  0  0  0  0  0  0  0  0  0
    0.5813    0.0626    1.0444 H   0  0  0  0  0  0  0  0  0  0  0  0
    0.5114   -0.8965   -0.4443 H   0  0  0  0  0  0  0  0  0  0  0  0
    0.5828    0.8694   -0.5338 H   0  0  0  0  0  0  0  0  0  0  0  0
    2.8183   -0.9028    0.6135 H   0  0  0  0  0  0  0  0  0  0  0  0
    2.8795    0.8393    0.4725 H   0  0  0  0  0  0  0  0  0  0  0  0
    3.1721    1.9476   -1.7107 H   0  0  0  0  0  0  0  0  0  0  0  0
    3.9563    1.7717   -4.0366 H   0  0  0  0  0  0  0  0  0  0  0  0
    4.4389    0.3322   -5.7361 H   0  0  0  0  0  0  0  0  0  0  0  0
    4.0393   -2.5890   -4.8007 H   0  0  0  0  0  0  0  0  0  0  0  0
    3.0540   -3.3024   -1.9585 H   0  0  0  0  0  0  0  0  0  0  0  0
  1  2  1  0  0  0  0
  1 12  1  0  0  0  0
  1 13  1  0  0  0  0
  1 14  1  0  0  0  0
  2  3  1  0  0  0  0
  2 15  1  0  0  0  0
  2 16  1  0  0  0  0
  3  4  1  0  0  0  0
  3 10  2  0  0  0  0
  4  5  2  0  0  0  0
  4 17  1  0  0  0  0
  5  6  1  0  0  0  0
  5 18  1  0  0  0  0
  6  7  1  0  0  0  0
  6  8  2  0  0  0  0
  7 19  1  0  0  0  0
  8  9  1  0  0  0  0
  8 10  1  0  0  0  0
  9 20  1  0  0  0  0
 10 11  1  0  0  0  0
 11 21  1  0  0  0  0
M  END
>  <Line_Number>
17


> <IC50>
34000

$$$$
