386838
 OpenBabel09092522103D

 48 51  0  0  1  0  0  0  0  0999 V2000
    3.1012    0.5006   -1.3710 C   0  0  0  0  0  0  0  0  0  0  0  0
    2.7504    0.2307    0.0959 C   0  0  1  0  0  0  0  0  0  0  0  0
    2.4449    1.5231    0.8502 C   0  0  0  0  0  0  0  0  0  0  0  0
    1.3365    2.2052    0.2583 O   0  0  0  0  0  0  0  0  0  0  0  0
    0.2078    1.4154    0.1477 C   0  0  0  0  0  0  0  0  0  0  0  0
   -1.0413    2.0540   -0.0364 C   0  0  0  0  0  0  0  0  0  0  0  0
   -1.2365    3.4378   -0.2073 N   0  0  0  0  0  0  0  0  0  0  0  0
   -0.1928    4.4107    0.1723 C   0  0  0  0  0  0  0  0  0  0  0  0
   -0.7794    5.8459    0.1731 C   0  0  0  0  0  0  0  0  0  0  0  0
   -1.3888    6.2086   -1.1278 N   0  0  0  0  0  0  0  0  0  0  0  0
   -1.9593    7.5500   -1.0870 C   0  0  0  0  0  0  0  0  0  0  0  0
   -2.4321    5.2120   -1.4544 C   0  0  0  0  0  0  0  0  0  0  0  0
   -1.8547    3.7833   -1.5135 C   0  0  0  0  0  0  0  0  0  0  0  0
   -2.1788    1.2111   -0.0489 C   0  0  0  0  0  0  0  0  0  0  0  0
   -3.4090    1.7481   -0.1249 F   0  0  0  0  0  0  0  0  0  0  0  0
   -2.1003   -0.1736    0.0212 C   0  0  0  0  0  0  0  0  0  0  0  0
   -0.8494   -0.7752    0.0958 C   0  0  0  0  0  0  0  0  0  0  0  0
   -0.7543   -2.2556    0.0940 C   0  0  0  0  0  0  0  0  0  0  0  0
   -1.7678   -2.9477    0.0490 O   0  0  0  0  0  0  0  0  0  0  0  0
    0.5973   -2.8707    0.1329 C   0  0  0  0  0  0  0  0  0  0  0  0
    0.8502   -4.3345    0.1302 C   0  0  0  0  0  0  0  0  0  0  0  0
    1.9802   -4.8132    0.1563 O   0  0  0  0  0  0  0  0  0  0  0  0
   -0.2680   -5.1226    0.1061 N   0  0  0  0  0  0  0  0  0  0  0  0
   -0.0800   -6.5202    0.1261 O   0  0  0  0  0  0  0  0  0  0  0  0
    1.6457   -2.0338    0.1646 C   0  0  0  0  0  0  0  0  0  0  0  0
    1.5779   -0.6538    0.1879 N   0  0  0  0  0  0  0  0  0  0  0  0
    0.3204   -0.0003    0.1539 C   0  0  0  0  0  0  0  0  0  0  0  0
    3.9807    1.1492   -1.4405 H   0  0  0  0  0  0  0  0  0  0  0  0
    2.2831    0.9904   -1.9106 H   0  0  0  0  0  0  0  0  0  0  0  0
    3.3243   -0.4324   -1.8982 H   0  0  0  0  0  0  0  0  0  0  0  0
    3.6105   -0.2518    0.5772 H   0  0  0  0  0  0  0  0  0  0  0  0
    3.3056    2.1991    0.8117 H   0  0  0  0  0  0  0  0  0  0  0  0
    2.2306    1.3317    1.9102 H   0  0  0  0  0  0  0  0  0  0  0  0
    0.6460    4.3787   -0.5353 H   0  0  0  0  0  0  0  0  0  0  0  0
    0.1780    4.2015    1.1824 H   0  0  0  0  0  0  0  0  0  0  0  0
    0.0289    6.5480    0.4093 H   0  0  0  0  0  0  0  0  0  0  0  0
   -1.5259    5.9193    0.9756 H   0  0  0  0  0  0  0  0  0  0  0  0
   -1.1793    8.2909   -0.8822 H   0  0  0  0  0  0  0  0  0  0  0  0
   -2.7424    7.6483   -0.3273 H   0  0  0  0  0  0  0  0  0  0  0  0
   -2.3898    7.8075   -2.0613 H   0  0  0  0  0  0  0  0  0  0  0  0
   -2.8789    5.4461   -2.4275 H   0  0  0  0  0  0  0  0  0  0  0  0
   -3.2357    5.2397   -0.7054 H   0  0  0  0  0  0  0  0  0  0  0  0
   -1.0993    3.7181   -2.3092 H   0  0  0  0  0  0  0  0  0  0  0  0
   -2.6685    3.1060   -1.7918 H   0  0  0  0  0  0  0  0  0  0  0  0
   -3.0148   -0.7587   -0.0079 H   0  0  0  0  0  0  0  0  0  0  0  0
   -1.2229   -4.7617    0.0913 H   0  0  0  0  0  0  0  0  0  0  0  0
    0.8965   -6.5997    0.1579 H   0  0  0  0  0  0  0  0  0  0  0  0
    2.6639   -2.4176    0.1782 H   0  0  0  0  0  0  0  0  0  0  0  0
  1  2  1  0  0  0  0
  1 28  1  0  0  0  0
  1 29  1  0  0  0  0
  1 30  1  0  0  0  0
  2  3  1  0  0  0  0
  2 26  1  0  0  0  0
  2 31  1  1  0  0  0
  3  4  1  0  0  0  0
  3 32  1  0  0  0  0
  3 33  1  0  0  0  0
  4  5  1  0  0  0  0
  5  6  1  0  0  0  0
  5 27  2  0  0  0  0
  6  7  1  0  0  0  0
  6 14  2  0  0  0  0
  7  8  1  0  0  0  0
  7 13  1  0  0  0  0
  8  9  1  0  0  0  0
  8 34  1  0  0  0  0
  8 35  1  0  0  0  0
  9 10  1  0  0  0  0
  9 36  1  0  0  0  0
  9 37  1  0  0  0  0
 10 11  1  0  0  0  0
 10 12  1  0  0  0  0
 11 38  1  0  0  0  0
 11 39  1  0  0  0  0
 11 40  1  0  0  0  0
 12 13  1  0  0  0  0
 12 41  1  0  0  0  0
 12 42  1  0  0  0  0
 13 43  1  0  0  0  0
 13 44  1  0  0  0  0
 14 15  1  0  0  0  0
 14 16  1  0  0  0  0
 16 17  2  0  0  0  0
 16 45  1  0  0  0  0
 17 18  1  0  0  0  0
 17 27  1  0  0  0  0
 18 19  2  0  0  0  0
 18 20  1  0  0  0  0
 20 21  1  0  0  0  0
 20 25  2  0  0  0  0
 21 22  2  0  0  0  0
 21 23  1  0  0  0  0
 23 24  1  0  0  0  0
 23 46  1  0  0  0  0
 24 47  1  0  0  0  0
 25 26  1  0  0  0  0
 25 48  1  0  0  0  0
 26 27  1  0  0  0  0
M  END
>  <Line_Number>
181


> <IC50>
2200

$$$$
