386830
 OpenBabel09092522103D

 70 74  0  0  0  0  0  0  0  0999 V2000
    1.1103    0.5318   -3.0969 C   0  0  0  0  0  0  0  0  0  0  0  0
    2.4916    0.2440   -2.8729 N   0  0  0  0  0  0  0  0  0  0  0  0
    3.1361   -0.7642   -3.5443 C   0  0  0  0  0  0  0  0  0  0  0  0
    2.5770   -1.5085   -4.3430 O   0  0  0  0  0  0  0  0  0  0  0  0
    4.5846   -0.8861   -3.2356 C   0  0  0  0  0  0  0  0  0  0  0  0
    5.2312   -2.0046   -3.6013 C   0  0  0  0  0  0  0  0  0  0  0  0
    6.5751   -2.2641   -3.4058 N   0  0  0  0  0  0  0  0  0  0  0  0
    7.1050   -3.5696   -3.8543 C   0  0  0  0  0  0  0  0  0  0  0  0
    6.6053   -4.8584   -3.2432 C   0  0  0  0  0  0  0  0  0  0  0  0
    8.0187   -4.4329   -3.0125 C   0  0  0  0  0  0  0  0  0  0  0  0
    7.4169   -1.2057   -2.9685 C   0  0  0  0  0  0  0  0  0  0  0  0
    8.8128   -1.3026   -2.9750 C   0  0  0  0  0  0  0  0  0  0  0  0
    9.6558   -0.2886   -2.4853 C   0  0  0  0  0  0  0  0  0  0  0  0
   11.0201   -0.4907   -2.4036 N   0  0  0  0  0  0  0  0  0  0  0  0
   11.5730   -1.8413   -2.3152 C   0  0  0  0  0  0  0  0  0  0  0  0
   12.7243   -1.8503   -1.3113 C   0  0  0  0  0  0  0  0  0  0  0  0
   13.7404   -0.8268   -1.5941 N   0  0  0  0  0  0  0  0  0  0  0  0
   15.1239   -1.0030   -1.5500 C   0  0  0  0  0  0  0  0  0  0  0  0
   15.9107   -0.1212   -1.8928 O   0  0  0  0  0  0  0  0  0  0  0  0
   15.7081   -2.3095   -1.1260 C   0  0  0  0  0  0  0  0  0  0  0  0
   16.8519   -2.7829   -1.7744 C   0  0  0  0  0  0  0  0  0  0  0  0
   17.3895   -4.0442   -1.4624 C   0  0  0  0  0  0  0  0  0  0  0  0
   18.5155   -4.5298   -2.0750 O   0  0  0  0  0  0  0  0  0  0  0  0
   19.2281   -3.6928   -2.9763 C   0  0  0  0  0  0  0  0  0  0  0  0
   16.7432   -4.8681   -0.5048 C   0  0  0  0  0  0  0  0  0  0  0  0
   17.1082   -6.1418   -0.1618 O   0  0  0  0  0  0  0  0  0  0  0  0
   18.2908   -6.7319   -0.6724 C   0  0  0  0  0  0  0  0  0  0  0  0
   15.6141   -4.3617    0.1724 C   0  0  0  0  0  0  0  0  0  0  0  0
   14.8041   -4.9724    1.0968 O   0  0  0  0  0  0  0  0  0  0  0  0
   15.0769   -6.3021    1.5060 C   0  0  0  0  0  0  0  0  0  0  0  0
   15.1640   -3.0654   -0.0945 C   0  0  0  0  0  0  0  0  0  0  0  0
   13.1931    0.5281   -1.8111 C   0  0  0  0  0  0  0  0  0  0  0  0
   11.9973    0.5425   -2.7887 C   0  0  0  0  0  0  0  0  0  0  0  0
    9.0333    0.8810   -2.0204 C   0  0  0  0  0  0  0  0  0  0  0  0
    9.7649    1.8749   -1.4917 F   0  0  0  0  0  0  0  0  0  0  0  0
    7.6513    1.0327   -2.0292 C   0  0  0  0  0  0  0  0  0  0  0  0
    6.8523   -0.0082   -2.5056 C   0  0  0  0  0  0  0  0  0  0  0  0
    5.3821    0.1577   -2.5384 C   0  0  0  0  0  0  0  0  0  0  0  0
    4.8557    1.1413   -2.0256 O   0  0  0  0  0  0  0  0  0  0  0  0
    0.7818    1.2835   -2.3710 H   0  0  0  0  0  0  0  0  0  0  0  0
    0.5138   -0.3772   -2.9659 H   0  0  0  0  0  0  0  0  0  0  0  0
    0.9682    0.9102   -4.1117 H   0  0  0  0  0  0  0  0  0  0  0  0
    3.0422    0.8781   -2.2915 H   0  0  0  0  0  0  0  0  0  0  0  0
    4.6999   -2.8146   -4.1021 H   0  0  0  0  0  0  0  0  0  0  0  0
    7.2922   -3.5763   -4.9260 H   0  0  0  0  0  0  0  0  0  0  0  0
    6.4312   -5.7009   -3.9011 H   0  0  0  0  0  0  0  0  0  0  0  0
    5.9335   -4.8091   -2.3936 H   0  0  0  0  0  0  0  0  0  0  0  0
    8.8029   -4.9827   -3.5217 H   0  0  0  0  0  0  0  0  0  0  0  0
    8.2846   -4.1058   -2.0142 H   0  0  0  0  0  0  0  0  0  0  0  0
    9.2657   -2.1932   -3.3945 H   0  0  0  0  0  0  0  0  0  0  0  0
   11.9252   -2.1652   -3.3019 H   0  0  0  0  0  0  0  0  0  0  0  0
   10.8414   -2.5748   -1.9564 H   0  0  0  0  0  0  0  0  0  0  0  0
   13.1353   -2.8572   -1.3350 H   0  0  0  0  0  0  0  0  0  0  0  0
   12.3399   -1.6430   -0.3036 H   0  0  0  0  0  0  0  0  0  0  0  0
   17.3027   -2.1441   -2.5289 H   0  0  0  0  0  0  0  0  0  0  0  0
   20.1059   -4.2500   -3.3188 H   0  0  0  0  0  0  0  0  0  0  0  0
   19.5844   -2.7835   -2.4814 H   0  0  0  0  0  0  0  0  0  0  0  0
   18.6213   -3.4599   -3.8565 H   0  0  0  0  0  0  0  0  0  0  0  0
   18.3855   -7.7204   -0.2109 H   0  0  0  0  0  0  0  0  0  0  0  0
   19.1782   -6.1590   -0.3877 H   0  0  0  0  0  0  0  0  0  0  0  0
   18.2221   -6.8917   -1.7527 H   0  0  0  0  0  0  0  0  0  0  0  0
   14.3023   -6.5880    2.2249 H   0  0  0  0  0  0  0  0  0  0  0  0
   16.0375   -6.3594    2.0252 H   0  0  0  0  0  0  0  0  0  0  0  0
   15.0102   -7.0060    0.6702 H   0  0  0  0  0  0  0  0  0  0  0  0
   14.3410   -2.6772    0.4997 H   0  0  0  0  0  0  0  0  0  0  0  0
   13.9678    1.2133   -2.1688 H   0  0  0  0  0  0  0  0  0  0  0  0
   12.8619    0.8904   -0.8298 H   0  0  0  0  0  0  0  0  0  0  0  0
   12.3578    0.3133   -3.8002 H   0  0  0  0  0  0  0  0  0  0  0  0
   11.5686    1.5480   -2.8308 H   0  0  0  0  0  0  0  0  0  0  0  0
    7.2148    1.9520   -1.6498 H   0  0  0  0  0  0  0  0  0  0  0  0
  1  2  1  0  0  0  0
  1 40  1  0  0  0  0
  1 41  1  0  0  0  0
  1 42  1  0  0  0  0
  2  3  1  0  0  0  0
  2 43  1  0  0  0  0
  3  4  2  0  0  0  0
  3  5  1  0  0  0  0
  5  6  2  0  0  0  0
  5 38  1  0  0  0  0
  6  7  1  0  0  0  0
  6 44  1  0  0  0  0
  7  8  1  0  0  0  0
  7 11  1  0  0  0  0
  8  9  1  0  0  0  0
  8 10  1  0  0  0  0
  8 45  1  0  0  0  0
  9 10  1  0  0  0  0
  9 46  1  0  0  0  0
  9 47  1  0  0  0  0
 10 48  1  0  0  0  0
 10 49  1  0  0  0  0
 11 12  1  0  0  0  0
 11 37  2  0  0  0  0
 12 13  2  0  0  0  0
 12 50  1  0  0  0  0
 13 14  1  0  0  0  0
 13 34  1  0  0  0  0
 14 15  1  0  0  0  0
 14 33  1  0  0  0  0
 15 16  1  0  0  0  0
 15 51  1  0  0  0  0
 15 52  1  0  0  0  0
 16 17  1  0  0  0  0
 16 53  1  0  0  0  0
 16 54  1  0  0  0  0
 17 18  1  0  0  0  0
 17 32  1  0  0  0  0
 18 19  2  0  0  0  0
 18 20  1  0  0  0  0
 20 21  1  0  0  0  0
 20 31  2  0  0  0  0
 21 22  2  0  0  0  0
 21 55  1  0  0  0  0
 22 23  1  0  0  0  0
 22 25  1  0  0  0  0
 23 24  1  0  0  0  0
 24 56  1  0  0  0  0
 24 57  1  0  0  0  0
 24 58  1  0  0  0  0
 25 26  1  0  0  0  0
 25 28  2  0  0  0  0
 26 27  1  0  0  0  0
 27 59  1  0  0  0  0
 27 60  1  0  0  0  0
 27 61  1  0  0  0  0
 28 29  1  0  0  0  0
 28 31  1  0  0  0  0
 29 30  1  0  0  0  0
 30 62  1  0  0  0  0
 30 63  1  0  0  0  0
 30 64  1  0  0  0  0
 31 65  1  0  0  0  0
 32 33  1  0  0  0  0
 32 66  1  0  0  0  0
 32 67  1  0  0  0  0
 33 68  1  0  0  0  0
 33 69  1  0  0  0  0
 34 35  1  0  0  0  0
 34 36  2  0  0  0  0
 36 37  1  0  0  0  0
 36 70  1  0  0  0  0
 37 38  1  0  0  0  0
 38 39  2  0  0  0  0
M  END
>  <Line_Number>
182


> <IC50>
2920

$$$$
