386834
 OpenBabel09092522103D

 57 61  0  0  0  0  0  0  0  0999 V2000
    1.1279   -0.0765   -2.2544 N   0  0  0  0  0  0  0  0  0  0  0  0
    2.5235   -0.0503   -2.1680 N   0  0  0  0  0  0  0  0  0  0  0  0
    3.1782   -0.5437   -1.0549 C   0  0  0  0  0  0  0  0  0  0  0  0
    2.6042   -1.0158   -0.0726 O   0  0  0  0  0  0  0  0  0  0  0  0
    4.6701   -0.4546   -1.1049 C   0  0  0  0  0  0  0  0  0  0  0  0
    5.4094   -0.9211   -0.0853 C   0  0  0  0  0  0  0  0  0  0  0  0
    6.7920   -0.8999   -0.0044 N   0  0  0  0  0  0  0  0  0  0  0  0
    7.4367   -1.4506    1.2077 C   0  0  0  0  0  0  0  0  0  0  0  0
    7.2095   -0.8066    2.5564 C   0  0  0  0  0  0  0  0  0  0  0  0
    8.5692   -0.7714    1.9441 C   0  0  0  0  0  0  0  0  0  0  0  0
    7.5340   -0.5067   -1.1492 C   0  0  0  0  0  0  0  0  0  0  0  0
    8.9216   -0.6491   -1.2283 C   0  0  0  0  0  0  0  0  0  0  0  0
    9.6629   -0.2299   -2.3420 C   0  0  0  0  0  0  0  0  0  0  0  0
   11.0243   -0.4373   -2.3517 N   0  0  0  0  0  0  0  0  0  0  0  0
   11.7354   -0.6412   -3.6062 C   0  0  0  0  0  0  0  0  0  0  0  0
   12.7282   -1.7844   -3.4087 C   0  0  0  0  0  0  0  0  0  0  0  0
   13.6270   -1.5780   -2.2606 N   0  0  0  0  0  0  0  0  0  0  0  0
   15.0147   -1.7383   -2.2465 C   0  0  0  0  0  0  0  0  0  0  0  0
   15.7013   -1.4339   -1.2736 O   0  0  0  0  0  0  0  0  0  0  0  0
   15.7137   -2.2624   -3.4576 C   0  0  0  0  0  0  0  0  0  0  0  0
   16.9792   -1.7634   -3.7858 C   0  0  0  0  0  0  0  0  0  0  0  0
   17.5957   -2.1566   -4.9777 C   0  0  0  0  0  0  0  0  0  0  0  0
   16.9433   -3.0281   -5.8516 C   0  0  0  0  0  0  0  0  0  0  0  0
   15.7146   -3.5741   -5.4982 C   0  0  0  0  0  0  0  0  0  0  0  0
   15.1426   -3.2461   -4.2735 C   0  0  0  0  0  0  0  0  0  0  0  0
   12.9311   -1.2426   -1.0066 C   0  0  0  0  0  0  0  0  0  0  0  0
   11.8870   -0.1233   -1.1984 C   0  0  0  0  0  0  0  0  0  0  0  0
    8.9468    0.3179   -3.4202 C   0  0  0  0  0  0  0  0  0  0  0  0
    9.5848    0.7453   -4.5218 F   0  0  0  0  0  0  0  0  0  0  0  0
    7.5680    0.4536   -3.3935 C   0  0  0  0  0  0  0  0  0  0  0  0
    6.8736    0.0358   -2.2606 C   0  0  0  0  0  0  0  0  0  0  0  0
    5.4005    0.1474   -2.2470 C   0  0  0  0  0  0  0  0  0  0  0  0
    4.8144    0.6959   -3.1712 O   0  0  0  0  0  0  0  0  0  0  0  0
    0.8130    0.7079   -2.8300 H   0  0  0  0  0  0  0  0  0  0  0  0
    0.7545    0.1071   -1.3119 H   0  0  0  0  0  0  0  0  0  0  0  0
    3.0814    0.2867   -2.9678 H   0  0  0  0  0  0  0  0  0  0  0  0
    4.9287   -1.3711    0.7845 H   0  0  0  0  0  0  0  0  0  0  0  0
    7.4845   -2.5374    1.1738 H   0  0  0  0  0  0  0  0  0  0  0  0
    7.0556   -1.4520    3.4117 H   0  0  0  0  0  0  0  0  0  0  0  0
    6.6691    0.1312    2.5991 H   0  0  0  0  0  0  0  0  0  0  0  0
    9.3394   -1.4025    2.3802 H   0  0  0  0  0  0  0  0  0  0  0  0
    8.9367    0.1867    1.5955 H   0  0  0  0  0  0  0  0  0  0  0  0
    9.4524   -1.1522   -0.4271 H   0  0  0  0  0  0  0  0  0  0  0  0
   12.2622    0.2747   -3.8970 H   0  0  0  0  0  0  0  0  0  0  0  0
   11.0755   -0.9399   -4.4283 H   0  0  0  0  0  0  0  0  0  0  0  0
   13.2570   -1.8716   -4.3526 H   0  0  0  0  0  0  0  0  0  0  0  0
   12.1860   -2.7200   -3.2099 H   0  0  0  0  0  0  0  0  0  0  0  0
   17.4848   -1.0636   -3.1230 H   0  0  0  0  0  0  0  0  0  0  0  0
   18.5796   -1.7721   -5.2350 H   0  0  0  0  0  0  0  0  0  0  0  0
   17.3996   -3.2978   -6.7998 H   0  0  0  0  0  0  0  0  0  0  0  0
   15.1961   -4.2542   -6.1696 H   0  0  0  0  0  0  0  0  0  0  0  0
   14.2160   -3.7348   -3.9884 H   0  0  0  0  0  0  0  0  0  0  0  0
   13.6347   -0.9643   -0.2164 H   0  0  0  0  0  0  0  0  0  0  0  0
   12.4224   -2.1600   -0.6827 H   0  0  0  0  0  0  0  0  0  0  0  0
   12.3996    0.8261   -1.3971 H   0  0  0  0  0  0  0  0  0  0  0  0
   11.3244    0.0103   -0.2684 H   0  0  0  0  0  0  0  0  0  0  0  0
    7.0573    0.8749   -4.2522 H   0  0  0  0  0  0  0  0  0  0  0  0
  1  2  1  0  0  0  0
  1 34  1  0  0  0  0
  1 35  1  0  0  0  0
  2  3  1  0  0  0  0
  2 36  1  0  0  0  0
  3  4  2  0  0  0  0
  3  5  1  0  0  0  0
  5  6  2  0  0  0  0
  5 32  1  0  0  0  0
  6  7  1  0  0  0  0
  6 37  1  0  0  0  0
  7  8  1  0  0  0  0
  7 11  1  0  0  0  0
  8  9  1  0  0  0  0
  8 10  1  0  0  0  0
  8 38  1  0  0  0  0
  9 10  1  0  0  0  0
  9 39  1  0  0  0  0
  9 40  1  0  0  0  0
 10 41  1  0  0  0  0
 10 42  1  0  0  0  0
 11 12  1  0  0  0  0
 11 31  2  0  0  0  0
 12 13  2  0  0  0  0
 12 43  1  0  0  0  0
 13 14  1  0  0  0  0
 13 28  1  0  0  0  0
 14 15  1  0  0  0  0
 14 27  1  0  0  0  0
 15 16  1  0  0  0  0
 15 44  1  0  0  0  0
 15 45  1  0  0  0  0
 16 17  1  0  0  0  0
 16 46  1  0  0  0  0
 16 47  1  0  0  0  0
 17 18  1  0  0  0  0
 17 26  1  0  0  0  0
 18 19  2  0  0  0  0
 18 20  1  0  0  0  0
 20 21  1  0  0  0  0
 20 25  2  0  0  0  0
 21 22  2  0  0  0  0
 21 48  1  0  0  0  0
 22 23  1  0  0  0  0
 22 49  1  0  0  0  0
 23 24  2  0  0  0  0
 23 50  1  0  0  0  0
 24 25  1  0  0  0  0
 24 51  1  0  0  0  0
 25 52  1  0  0  0  0
 26 27  1  0  0  0  0
 26 53  1  0  0  0  0
 26 54  1  0  0  0  0
 27 55  1  0  0  0  0
 27 56  1  0  0  0  0
 28 29  1  0  0  0  0
 28 30  2  0  0  0  0
 30 31  1  0  0  0  0
 30 57  1  0  0  0  0
 31 32  1  0  0  0  0
 32 33  2  0  0  0  0
M  END
>  <Line_Number>
184


> <IC50>
250440

$$$$
