386824
 OpenBabel09092522103D

 56 60  0  0  0  0  0  0  0  0999 V2000
    1.3138   -0.6304    0.4987 O   0  0  0  0  0  0  0  0  0  0  0  0
    2.3020   -0.0489    0.0533 C   0  0  0  0  0  0  0  0  0  0  0  0
    2.7727   -0.2906   -1.2055 N   0  0  0  0  0  0  0  0  0  0  0  0
    2.1080   -1.2688   -1.9741 O   0  0  0  0  0  0  0  0  0  0  0  0
    3.0748    0.9359    0.8480 C   0  0  0  0  0  0  0  0  0  0  0  0
    2.6753    1.2234    2.0998 C   0  0  0  0  0  0  0  0  0  0  0  0
    3.3096    2.0861    2.9815 N   0  0  0  0  0  0  0  0  0  0  0  0
    2.7408    2.2228    4.3330 C   0  0  0  0  0  0  0  0  0  0  0  0
    1.3537    2.7908    4.5252 C   0  0  0  0  0  0  0  0  0  0  0  0
    2.5382    3.5510    5.0252 C   0  0  0  0  0  0  0  0  0  0  0  0
    4.5675    2.6412    2.6141 C   0  0  0  0  0  0  0  0  0  0  0  0
    5.3693    3.3529    3.5175 C   0  0  0  0  0  0  0  0  0  0  0  0
    6.5963    3.9322    3.1570 C   0  0  0  0  0  0  0  0  0  0  0  0
    7.3645    4.5567    4.1192 N   0  0  0  0  0  0  0  0  0  0  0  0
    8.8225    4.6092    4.0066 C   0  0  0  0  0  0  0  0  0  0  0  0
    9.4455    4.2649    5.3653 C   0  0  0  0  0  0  0  0  0  0  0  0
    8.8955    5.0582    6.4786 N   0  0  0  0  0  0  0  0  0  0  0  0
    9.6230    5.6608    7.5051 C   0  0  0  0  0  0  0  0  0  0  0  0
    9.0957    6.3984    8.3375 O   0  0  0  0  0  0  0  0  0  0  0  0
   11.0964    5.4582    7.6035 C   0  0  0  0  0  0  0  0  0  0  0  0
   11.8954    6.5512    7.9614 C   0  0  0  0  0  0  0  0  0  0  0  0
   13.2854    6.4203    8.0035 C   0  0  0  0  0  0  0  0  0  0  0  0
   13.8823    5.2030    7.6763 C   0  0  0  0  0  0  0  0  0  0  0  0
   13.0907    4.0981    7.3714 C   0  0  0  0  0  0  0  0  0  0  0  0
   11.7005    4.2146    7.3821 C   0  0  0  0  0  0  0  0  0  0  0  0
    7.4249    5.1089    6.5272 C   0  0  0  0  0  0  0  0  0  0  0  0
    6.8006    5.4405    5.1566 C   0  0  0  0  0  0  0  0  0  0  0  0
    7.0015    3.7660    1.8198 C   0  0  0  0  0  0  0  0  0  0  0  0
    8.1401    4.3233    1.3789 F   0  0  0  0  0  0  0  0  0  0  0  0
    6.2562    3.0360    0.9020 C   0  0  0  0  0  0  0  0  0  0  0  0
    5.0516    2.4636    1.3082 C   0  0  0  0  0  0  0  0  0  0  0  0
    4.2959    1.6187    0.3566 C   0  0  0  0  0  0  0  0  0  0  0  0
    4.6975    1.4615   -0.7935 O   0  0  0  0  0  0  0  0  0  0  0  0
    3.6040    0.1521   -1.6027 H   0  0  0  0  0  0  0  0  0  0  0  0
    1.3970   -1.5625   -1.3647 H   0  0  0  0  0  0  0  0  0  0  0  0
    1.7859    0.7533    2.5173 H   0  0  0  0  0  0  0  0  0  0  0  0
    3.0203    1.3879    4.9721 H   0  0  0  0  0  0  0  0  0  0  0  0
    0.7075    2.3193    5.2548 H   0  0  0  0  0  0  0  0  0  0  0  0
    0.8349    3.2006    3.6663 H   0  0  0  0  0  0  0  0  0  0  0  0
    2.7051    3.5894    6.0963 H   0  0  0  0  0  0  0  0  0  0  0  0
    2.8029    4.4641    4.5044 H   0  0  0  0  0  0  0  0  0  0  0  0
    5.0658    3.4129    4.5563 H   0  0  0  0  0  0  0  0  0  0  0  0
    9.1312    5.6116    3.6908 H   0  0  0  0  0  0  0  0  0  0  0  0
    9.2208    3.8839    3.2890 H   0  0  0  0  0  0  0  0  0  0  0  0
   10.5208    4.4000    5.2642 H   0  0  0  0  0  0  0  0  0  0  0  0
    9.2436    3.2133    5.6093 H   0  0  0  0  0  0  0  0  0  0  0  0
   11.4363    7.5072    8.2059 H   0  0  0  0  0  0  0  0  0  0  0  0
   13.9024    7.2702    8.2843 H   0  0  0  0  0  0  0  0  0  0  0  0
   14.9655    5.1105    7.6756 H   0  0  0  0  0  0  0  0  0  0  0  0
   13.5534    3.1453    7.1271 H   0  0  0  0  0  0  0  0  0  0  0  0
   11.0991    3.3303    7.1939 H   0  0  0  0  0  0  0  0  0  0  0  0
    7.0752    5.8287    7.2741 H   0  0  0  0  0  0  0  0  0  0  0  0
    7.0889    4.1156    6.8513 H   0  0  0  0  0  0  0  0  0  0  0  0
    7.0354    6.4800    4.8940 H   0  0  0  0  0  0  0  0  0  0  0  0
    5.7097    5.3774    5.2307 H   0  0  0  0  0  0  0  0  0  0  0  0
    6.6305    2.9135   -0.1109 H   0  0  0  0  0  0  0  0  0  0  0  0
  1  2  2  0  0  0  0
  2  3  1  0  0  0  0
  2  5  1  0  0  0  0
  3  4  1  0  0  0  0
  3 34  1  0  0  0  0
  4 35  1  0  0  0  0
  5  6  2  0  0  0  0
  5 32  1  0  0  0  0
  6  7  1  0  0  0  0
  6 36  1  0  0  0  0
  7  8  1  0  0  0  0
  7 11  1  0  0  0  0
  8  9  1  0  0  0  0
  8 10  1  0  0  0  0
  8 37  1  0  0  0  0
  9 10  1  0  0  0  0
  9 38  1  0  0  0  0
  9 39  1  0  0  0  0
 10 40  1  0  0  0  0
 10 41  1  0  0  0  0
 11 12  1  0  0  0  0
 11 31  2  0  0  0  0
 12 13  2  0  0  0  0
 12 42  1  0  0  0  0
 13 14  1  0  0  0  0
 13 28  1  0  0  0  0
 14 15  1  0  0  0  0
 14 27  1  0  0  0  0
 15 16  1  0  0  0  0
 15 43  1  0  0  0  0
 15 44  1  0  0  0  0
 16 17  1  0  0  0  0
 16 45  1  0  0  0  0
 16 46  1  0  0  0  0
 17 18  1  0  0  0  0
 17 26  1  0  0  0  0
 18 19  2  0  0  0  0
 18 20  1  0  0  0  0
 20 21  1  0  0  0  0
 20 25  2  0  0  0  0
 21 22  2  0  0  0  0
 21 47  1  0  0  0  0
 22 23  1  0  0  0  0
 22 48  1  0  0  0  0
 23 24  2  0  0  0  0
 23 49  1  0  0  0  0
 24 25  1  0  0  0  0
 24 50  1  0  0  0  0
 25 51  1  0  0  0  0
 26 27  1  0  0  0  0
 26 52  1  0  0  0  0
 26 53  1  0  0  0  0
 27 54  1  0  0  0  0
 27 55  1  0  0  0  0
 28 29  1  0  0  0  0
 28 30  2  0  0  0  0
 30 31  1  0  0  0  0
 30 56  1  0  0  0  0
 31 32  1  0  0  0  0
 32 33  2  0  0  0  0
M  END
>  <Line_Number>
185


> <IC50>
18930

$$$$
