386822
 OpenBabel09092522103D

 10  9  0  0  0  0  0  0  0  0999 V2000
    1.1040    0.0458   -0.0558 C   0  0  0  0  0  0  0  0  0  0  0  0
    2.6047    0.0795   -0.0689 C   0  0  0  0  0  0  0  0  0  0  0  0
    3.2584    1.0343   -0.4807 O   0  0  0  0  0  0  0  0  0  0  0  0
    3.1925   -1.0560    0.4222 N   0  0  0  0  0  0  0  0  0  0  0  0
    4.6033   -1.0864    0.4324 O   0  0  0  0  0  0  0  0  0  0  0  0
    0.7133    0.9844   -0.4590 H   0  0  0  0  0  0  0  0  0  0  0  0
    0.7437   -0.0749    0.9695 H   0  0  0  0  0  0  0  0  0  0  0  0
    0.7453   -0.7809   -0.6752 H   0  0  0  0  0  0  0  0  0  0  0  0
    2.7036   -1.8743    0.7660 H   0  0  0  0  0  0  0  0  0  0  0  0
    4.8332   -0.2083    0.0546 H   0  0  0  0  0  0  0  0  0  0  0  0
  1  2  1  0  0  0  0
  1  6  1  0  0  0  0
  1  7  1  0  0  0  0
  1  8  1  0  0  0  0
  2  3  2  0  0  0  0
  2  4  1  0  0  0  0
  4  5  1  0  0  0  0
  4  9  1  0  0  0  0
  5 10  1  0  0  0  0
M  END
>  <Line_Number>
186


> <IC50>
120000

$$$$
