386832
 OpenBabel09092522103D

 91 96  0  0  0  0  0  0  0  0999 V2000
   15.5753    9.0002   -6.4068 C   0  0  0  0  0  0  0  0  0  0  0  0
   15.6160    7.7492   -5.6790 N   0  0  0  0  0  0  0  0  0  0  0  0
   15.5786    7.6999   -4.2533 C   0  0  0  0  0  0  0  0  0  0  0  0
   15.5086    8.7543   -3.5966 O   0  0  0  0  0  0  0  0  0  0  0  0
   15.5912    6.3845   -3.5815 C   0  0  0  0  0  0  0  0  0  0  0  0
   15.6158    6.2089   -2.2580 C   0  0  0  0  0  0  0  0  0  0  0  0
   15.5794    4.9821   -1.6255 N   0  0  0  0  0  0  0  0  0  0  0  0
   15.6331    4.9271   -0.1451 C   0  0  0  0  0  0  0  0  0  0  0  0
   14.3595    4.7915    0.6576 C   0  0  0  0  0  0  0  0  0  0  0  0
   15.1962    6.0242    0.7960 C   0  0  0  0  0  0  0  0  0  0  0  0
   15.5065    3.7858   -2.3975 C   0  0  0  0  0  0  0  0  0  0  0  0
   15.4069    2.5126   -1.8265 C   0  0  0  0  0  0  0  0  0  0  0  0
   15.2265    1.3472   -2.6002 C   0  0  0  0  0  0  0  0  0  0  0  0
   15.0057    0.1322   -1.9906 N   0  0  0  0  0  0  0  0  0  0  0  0
   14.0730   -0.8521   -2.5611 C   0  0  0  0  0  0  0  0  0  0  0  0
   13.0980   -1.3395   -1.4558 C   0  0  0  0  0  0  0  0  0  0  0  0
   13.7499   -1.8441   -0.2158 N   0  0  0  0  0  0  0  0  0  0  0  0
   14.4542   -3.1141   -0.5166 C   0  0  0  0  0  0  0  0  0  0  0  0
   15.2385   -3.6397    0.6833 C   0  0  0  0  0  0  0  0  0  0  0  0
   16.3970   -3.2500    0.8471 O   0  0  0  0  0  0  0  0  0  0  0  0
   14.5668   -4.5541    1.4889 N   0  0  0  0  0  0  0  0  0  0  0  0
   15.1236   -5.1374    2.6515 C   0  0  0  0  0  0  0  0  0  0  0  0
   16.2062   -4.5482    3.3016 C   0  0  0  0  0  0  0  0  0  0  0  0
   16.8609   -5.1881    4.3457 C   0  0  0  0  0  0  0  0  0  0  0  0
   16.4192   -6.4319    4.7925 C   0  0  0  0  0  0  0  0  0  0  0  0
   17.1859   -7.1503    5.8522 C   0  0  0  0  0  0  0  0  0  0  0  0
   16.6230   -7.8979    6.6415 O   0  0  0  0  0  0  0  0  0  0  0  0
   18.6688   -6.9377    5.8634 C   0  0  0  0  0  0  0  0  0  0  0  0
   19.4126   -7.1749    6.9547 C   0  0  0  0  0  0  0  0  0  0  0  0
   20.8657   -6.9520    6.9544 C   0  0  0  0  0  0  0  0  0  0  0  0
   21.4038   -5.7173    7.2931 C   0  0  0  0  0  0  0  0  0  0  0  0
   22.7932   -5.5332    7.2880 C   0  0  0  0  0  0  0  0  0  0  0  0
   23.3491   -4.3272    7.6308 O   0  0  0  0  0  0  0  0  0  0  0  0
   22.5332   -3.2058    7.9200 C   0  0  0  0  0  0  0  0  0  0  0  0
   23.6711   -6.6061    6.9276 C   0  0  0  0  0  0  0  0  0  0  0  0
   25.0224   -6.5131    6.8691 O   0  0  0  0  0  0  0  0  0  0  0  0
   25.6323   -5.2617    7.1630 C   0  0  0  0  0  0  0  0  0  0  0  0
   23.1005   -7.8425    6.5509 C   0  0  0  0  0  0  0  0  0  0  0  0
   23.8966   -8.9001    6.2186 O   0  0  0  0  0  0  0  0  0  0  0  0
   23.3629   -9.8299    5.2596 C   0  0  0  0  0  0  0  0  0  0  0  0
   21.7328   -7.9905    6.5970 C   0  0  0  0  0  0  0  0  0  0  0  0
   15.2507   -6.9774    4.2420 C   0  0  0  0  0  0  0  0  0  0  0  0
   14.6048   -6.3335    3.1671 C   0  0  0  0  0  0  0  0  0  0  0  0
   14.6709   -0.7749    0.2683 C   0  0  0  0  0  0  0  0  0  0  0  0
   15.7038   -0.2846   -0.7684 C   0  0  0  0  0  0  0  0  0  0  0  0
   15.2239    1.4891   -3.9954 C   0  0  0  0  0  0  0  0  0  0  0  0
   15.0767    0.4204   -4.7956 F   0  0  0  0  0  0  0  0  0  0  0  0
   15.3795    2.7192   -4.5988 C   0  0  0  0  0  0  0  0  0  0  0  0
   15.4943    3.8552   -3.7965 C   0  0  0  0  0  0  0  0  0  0  0  0
   15.5714    5.1666   -4.4448 C   0  0  0  0  0  0  0  0  0  0  0  0
   15.6058    5.2283   -5.6682 O   0  0  0  0  0  0  0  0  0  0  0  0
   15.6097    8.7865   -7.4771 H   0  0  0  0  0  0  0  0  0  0  0  0
   16.4341    9.6099   -6.1146 H   0  0  0  0  0  0  0  0  0  0  0  0
   14.6521    9.5288   -6.1556 H   0  0  0  0  0  0  0  0  0  0  0  0
   15.6510    6.8767   -6.2457 H   0  0  0  0  0  0  0  0  0  0  0  0
   15.6555    7.0605   -1.5871 H   0  0  0  0  0  0  0  0  0  0  0  0
   16.4998    4.3623    0.1948 H   0  0  0  0  0  0  0  0  0  0  0  0
   14.3434    4.0991    1.4917 H   0  0  0  0  0  0  0  0  0  0  0  0
   13.4100    4.8793    0.1412 H   0  0  0  0  0  0  0  0  0  0  0  0
   15.7601    6.1498    1.7156 H   0  0  0  0  0  0  0  0  0  0  0  0
   14.7815    6.9502    0.4211 H   0  0  0  0  0  0  0  0  0  0  0  0
   15.3956    2.4225   -0.7456 H   0  0  0  0  0  0  0  0  0  0  0  0
   14.6417   -1.6873   -2.9846 H   0  0  0  0  0  0  0  0  0  0  0  0
   13.4635   -0.4331   -3.3700 H   0  0  0  0  0  0  0  0  0  0  0  0
   12.4236   -2.1006   -1.8642 H   0  0  0  0  0  0  0  0  0  0  0  0
   12.4551   -0.4940   -1.1736 H   0  0  0  0  0  0  0  0  0  0  0  0
   15.1849   -3.0060   -1.3272 H   0  0  0  0  0  0  0  0  0  0  0  0
   13.7365   -3.8747   -0.8437 H   0  0  0  0  0  0  0  0  0  0  0  0
   13.7037   -4.9362    1.1388 H   0  0  0  0  0  0  0  0  0  0  0  0
   16.5690   -3.5679    3.0080 H   0  0  0  0  0  0  0  0  0  0  0  0
   17.7167   -4.6882    4.7862 H   0  0  0  0  0  0  0  0  0  0  0  0
   19.1258   -6.5781    4.9474 H   0  0  0  0  0  0  0  0  0  0  0  0
   18.9716   -7.5408    7.8789 H   0  0  0  0  0  0  0  0  0  0  0  0
   20.7269   -4.9157    7.5672 H   0  0  0  0  0  0  0  0  0  0  0  0
   23.2019   -2.3642    8.1314 H   0  0  0  0  0  0  0  0  0  0  0  0
   21.9303   -3.3811    8.8161 H   0  0  0  0  0  0  0  0  0  0  0  0
   21.9154   -2.9311    7.0613 H   0  0  0  0  0  0  0  0  0  0  0  0
   26.7127   -5.4081    7.0519 H   0  0  0  0  0  0  0  0  0  0  0  0
   25.4805   -4.9665    8.2060 H   0  0  0  0  0  0  0  0  0  0  0  0
   25.3568   -4.4921    6.4347 H   0  0  0  0  0  0  0  0  0  0  0  0
   24.1360  -10.5854    5.0865 H   0  0  0  0  0  0  0  0  0  0  0  0
   23.1625   -9.3270    4.3082 H   0  0  0  0  0  0  0  0  0  0  0  0
   22.4856  -10.3657    5.6301 H   0  0  0  0  0  0  0  0  0  0  0  0
   21.2630   -8.9449    6.3771 H   0  0  0  0  0  0  0  0  0  0  0  0
   14.8575   -7.9186    4.6232 H   0  0  0  0  0  0  0  0  0  0  0  0
   13.7301   -6.8028    2.7242 H   0  0  0  0  0  0  0  0  0  0  0  0
   15.1801   -1.0787    1.1881 H   0  0  0  0  0  0  0  0  0  0  0  0
   14.0520    0.0841    0.5659 H   0  0  0  0  0  0  0  0  0  0  0  0
   16.4100   -1.0819   -1.0254 H   0  0  0  0  0  0  0  0  0  0  0  0
   16.3085    0.5162   -0.3299 H   0  0  0  0  0  0  0  0  0  0  0  0
   15.3804    2.7597   -5.6835 H   0  0  0  0  0  0  0  0  0  0  0  0
  1  2  1  0  0  0  0
  1 52  1  0  0  0  0
  1 53  1  0  0  0  0
  1 54  1  0  0  0  0
  2  3  1  0  0  0  0
  2 55  1  0  0  0  0
  3  4  2  0  0  0  0
  3  5  1  0  0  0  0
  5  6  2  0  0  0  0
  5 50  1  0  0  0  0
  6  7  1  0  0  0  0
  6 56  1  0  0  0  0
  7  8  1  0  0  0  0
  7 11  1  0  0  0  0
  8  9  1  0  0  0  0
  8 10  1  0  0  0  0
  8 57  1  0  0  0  0
  9 10  1  0  0  0  0
  9 58  1  0  0  0  0
  9 59  1  0  0  0  0
 10 60  1  0  0  0  0
 10 61  1  0  0  0  0
 11 12  1  0  0  0  0
 11 49  2  0  0  0  0
 12 13  2  0  0  0  0
 12 62  1  0  0  0  0
 13 14  1  0  0  0  0
 13 46  1  0  0  0  0
 14 15  1  0  0  0  0
 14 45  1  0  0  0  0
 15 16  1  0  0  0  0
 15 63  1  0  0  0  0
 15 64  1  0  0  0  0
 16 17  1  0  0  0  0
 16 65  1  0  0  0  0
 16 66  1  0  0  0  0
 17 18  1  0  0  0  0
 17 44  1  0  0  0  0
 18 19  1  0  0  0  0
 18 67  1  0  0  0  0
 18 68  1  0  0  0  0
 19 20  2  0  0  0  0
 19 21  1  0  0  0  0
 21 22  1  0  0  0  0
 21 69  1  0  0  0  0
 22 23  1  0  0  0  0
 22 43  2  0  0  0  0
 23 24  2  0  0  0  0
 23 70  1  0  0  0  0
 24 25  1  0  0  0  0
 24 71  1  0  0  0  0
 25 26  1  0  0  0  0
 25 42  2  0  0  0  0
 26 27  2  0  0  0  0
 26 28  1  0  0  0  0
 28 29  2  0  0  0  0
 28 72  1  0  0  0  0
 29 30  1  0  0  0  0
 29 73  1  0  0  0  0
 30 31  1  0  0  0  0
 30 41  2  0  0  0  0
 31 32  2  0  0  0  0
 31 74  1  0  0  0  0
 32 33  1  0  0  0  0
 32 35  1  0  0  0  0
 33 34  1  0  0  0  0
 34 75  1  0  0  0  0
 34 76  1  0  0  0  0
 34 77  1  0  0  0  0
 35 36  1  0  0  0  0
 35 38  2  0  0  0  0
 36 37  1  0  0  0  0
 37 78  1  0  0  0  0
 37 79  1  0  0  0  0
 37 80  1  0  0  0  0
 38 39  1  0  0  0  0
 38 41  1  0  0  0  0
 39 40  1  0  0  0  0
 40 81  1  0  0  0  0
 40 82  1  0  0  0  0
 40 83  1  0  0  0  0
 41 84  1  0  0  0  0
 42 43  1  0  0  0  0
 42 85  1  0  0  0  0
 43 86  1  0  0  0  0
 44 45  1  0  0  0  0
 44 87  1  0  0  0  0
 44 88  1  0  0  0  0
 45 89  1  0  0  0  0
 45 90  1  0  0  0  0
 46 47  1  0  0  0  0
 46 48  2  0  0  0  0
 48 49  1  0  0  0  0
 48 91  1  0  0  0  0
 49 50  1  0  0  0  0
 50 51  2  0  0  0  0
M  END
>  <Line_Number>
187


> <IC50>
630900

$$$$
