386831
 OpenBabel09092522103D

 79 84  0  0  0  0  0  0  0  0999 V2000
    1.1203   -0.2958   -2.7226 C   0  0  0  0  0  0  0  0  0  0  0  0
    2.5686   -0.3380   -2.6129 N   0  0  0  0  0  0  0  0  0  0  0  0
    3.1744   -0.9193   -1.4474 C   0  0  0  0  0  0  0  0  0  0  0  0
    2.5188   -1.4113   -0.5266 O   0  0  0  0  0  0  0  0  0  0  0  0
    4.6541   -0.9562   -1.3440 C   0  0  0  0  0  0  0  0  0  0  0  0
    5.3126   -1.5025   -0.3083 C   0  0  0  0  0  0  0  0  0  0  0  0
    6.6947   -1.5367   -0.1582 N   0  0  0  0  0  0  0  0  0  0  0  0
    7.2912   -2.2297    1.0015 C   0  0  0  0  0  0  0  0  0  0  0  0
    6.7151   -2.2293    2.3925 C   0  0  0  0  0  0  0  0  0  0  0  0
    7.9494   -1.4324    2.1053 C   0  0  0  0  0  0  0  0  0  0  0  0
    7.5246   -1.0712   -1.2188 C   0  0  0  0  0  0  0  0  0  0  0  0
    8.9156   -1.2050   -1.2434 C   0  0  0  0  0  0  0  0  0  0  0  0
    9.7090   -0.7580   -2.3266 C   0  0  0  0  0  0  0  0  0  0  0  0
   11.0709   -0.9740   -2.3132 N   0  0  0  0  0  0  0  0  0  0  0  0
   11.6488   -2.2235   -1.8068 C   0  0  0  0  0  0  0  0  0  0  0  0
   12.7894   -1.8764   -0.8281 C   0  0  0  0  0  0  0  0  0  0  0  0
   13.8586   -0.9921   -1.3838 N   0  0  0  0  0  0  0  0  0  0  0  0
   14.6152   -1.6597   -2.4668 C   0  0  0  0  0  0  0  0  0  0  0  0
   15.2585   -2.9533   -1.9913 C   0  0  0  0  0  0  0  0  0  0  0  0
   14.9864   -4.0092   -2.5638 O   0  0  0  0  0  0  0  0  0  0  0  0
   16.0910   -2.8025   -0.8940 N   0  0  0  0  0  0  0  0  0  0  0  0
   16.7848   -3.8608   -0.2633 C   0  0  0  0  0  0  0  0  0  0  0  0
   16.9909   -5.0861   -0.8967 C   0  0  0  0  0  0  0  0  0  0  0  0
   17.5398   -6.1710   -0.2071 C   0  0  0  0  0  0  0  0  0  0  0  0
   17.9206   -6.0334    1.1273 C   0  0  0  0  0  0  0  0  0  0  0  0
   18.3897   -7.2690    1.8226 C   0  0  0  0  0  0  0  0  0  0  0  0
   18.8745   -8.2000    1.1894 O   0  0  0  0  0  0  0  0  0  0  0  0
   18.1721   -7.3490    3.2869 C   0  0  0  0  0  0  0  0  0  0  0  0
   18.5072   -8.4378    3.9989 C   0  0  0  0  0  0  0  0  0  0  0  0
   18.3355   -8.4870    5.4610 C   0  0  0  0  0  0  0  0  0  0  0  0
   17.3505   -7.7099    6.0985 C   0  0  0  0  0  0  0  0  0  0  0  0
   17.2988   -7.6299    7.4835 C   0  0  0  0  0  0  0  0  0  0  0  0
   18.1571   -8.4164    8.2320 C   0  0  0  0  0  0  0  0  0  0  0  0
   18.9683   -9.3509    7.5965 C   0  0  0  0  0  0  0  0  0  0  0  0
   19.1465   -9.3310    6.2397 C   0  0  0  0  0  0  0  0  0  0  0  0
   17.8162   -4.7756    1.7353 C   0  0  0  0  0  0  0  0  0  0  0  0
   17.2523   -3.6924    1.0390 C   0  0  0  0  0  0  0  0  0  0  0  0
   13.1899    0.2197   -1.9472 C   0  0  0  0  0  0  0  0  0  0  0  0
   12.0164   -0.0408   -2.9332 C   0  0  0  0  0  0  0  0  0  0  0  0
    9.0513   -0.0910   -3.3763 C   0  0  0  0  0  0  0  0  0  0  0  0
    9.7354    0.3656   -4.4358 F   0  0  0  0  0  0  0  0  0  0  0  0
    7.6807    0.0706   -3.3798 C   0  0  0  0  0  0  0  0  0  0  0  0
    6.9392   -0.4505   -2.3199 C   0  0  0  0  0  0  0  0  0  0  0  0
    5.4876   -0.3616   -2.3620 C   0  0  0  0  0  0  0  0  0  0  0  0
    4.9301    0.2516   -3.2685 O   0  0  0  0  0  0  0  0  0  0  0  0
    0.8556    0.1830   -3.6677 H   0  0  0  0  0  0  0  0  0  0  0  0
    0.7152    0.2742   -1.8825 H   0  0  0  0  0  0  0  0  0  0  0  0
    0.7309   -1.3167   -2.6933 H   0  0  0  0  0  0  0  0  0  0  0  0
    3.1297    0.0403   -3.3664 H   0  0  0  0  0  0  0  0  0  0  0  0
    4.7614   -1.9635    0.5069 H   0  0  0  0  0  0  0  0  0  0  0  0
    7.7779   -3.1558    0.7015 H   0  0  0  0  0  0  0  0  0  0  0  0
    6.8242   -3.1384    2.9741 H   0  0  0  0  0  0  0  0  0  0  0  0
    5.8014   -1.6858    2.5936 H   0  0  0  0  0  0  0  0  0  0  0  0
    8.8896   -1.7895    2.5079 H   0  0  0  0  0  0  0  0  0  0  0  0
    7.8560   -0.3520    2.0885 H   0  0  0  0  0  0  0  0  0  0  0  0
    9.4139   -1.6532   -0.3891 H   0  0  0  0  0  0  0  0  0  0  0  0
   12.0197   -2.8208   -2.6483 H   0  0  0  0  0  0  0  0  0  0  0  0
   10.9199   -2.8619   -1.2959 H   0  0  0  0  0  0  0  0  0  0  0  0
   13.2153   -2.7986   -0.4185 H   0  0  0  0  0  0  0  0  0  0  0  0
   12.3513   -1.3566    0.0356 H   0  0  0  0  0  0  0  0  0  0  0  0
   15.4196   -1.0064   -2.8231 H   0  0  0  0  0  0  0  0  0  0  0  0
   13.9898   -1.9081   -3.3306 H   0  0  0  0  0  0  0  0  0  0  0  0
   15.9824   -1.9288   -0.3919 H   0  0  0  0  0  0  0  0  0  0  0  0
   16.7179   -5.2507   -1.9352 H   0  0  0  0  0  0  0  0  0  0  0  0
   17.6354   -7.1251   -0.7143 H   0  0  0  0  0  0  0  0  0  0  0  0
   17.7206   -6.4913    3.7628 H   0  0  0  0  0  0  0  0  0  0  0  0
   18.9644   -9.2997    3.5178 H   0  0  0  0  0  0  0  0  0  0  0  0
   16.6164   -7.1479    5.5287 H   0  0  0  0  0  0  0  0  0  0  0  0
   16.5707   -6.9892    7.9715 H   0  0  0  0  0  0  0  0  0  0  0  0
   18.0964   -8.4012    9.3178 H   0  0  0  0  0  0  0  0  0  0  0  0
   19.4536  -10.0899    8.1987 H   0  0  0  0  0  0  0  0  0  0  0  0
   19.8608  -10.0010    5.7693 H   0  0  0  0  0  0  0  0  0  0  0  0
   18.1667   -4.6081    2.7533 H   0  0  0  0  0  0  0  0  0  0  0  0
   17.1525   -2.7344    1.5483 H   0  0  0  0  0  0  0  0  0  0  0  0
   13.9335    0.8681   -2.4259 H   0  0  0  0  0  0  0  0  0  0  0  0
   12.7928    0.7959   -1.1005 H   0  0  0  0  0  0  0  0  0  0  0  0
   12.3798   -0.4550   -3.8819 H   0  0  0  0  0  0  0  0  0  0  0  0
   11.5575    0.9292   -3.1542 H   0  0  0  0  0  0  0  0  0  0  0  0
    7.2030    0.5742   -4.2146 H   0  0  0  0  0  0  0  0  0  0  0  0
  1  2  1  0  0  0  0
  1 46  1  0  0  0  0
  1 47  1  0  0  0  0
  1 48  1  0  0  0  0
  2  3  1  0  0  0  0
  2 49  1  0  0  0  0
  3  4  2  0  0  0  0
  3  5  1  0  0  0  0
  5  6  2  0  0  0  0
  5 44  1  0  0  0  0
  6  7  1  0  0  0  0
  6 50  1  0  0  0  0
  7  8  1  0  0  0  0
  7 11  1  0  0  0  0
  8  9  1  0  0  0  0
  8 10  1  0  0  0  0
  8 51  1  0  0  0  0
  9 10  1  0  0  0  0
  9 52  1  0  0  0  0
  9 53  1  0  0  0  0
 10 54  1  0  0  0  0
 10 55  1  0  0  0  0
 11 12  1  0  0  0  0
 11 43  2  0  0  0  0
 12 13  2  0  0  0  0
 12 56  1  0  0  0  0
 13 14  1  0  0  0  0
 13 40  1  0  0  0  0
 14 15  1  0  0  0  0
 14 39  1  0  0  0  0
 15 16  1  0  0  0  0
 15 57  1  0  0  0  0
 15 58  1  0  0  0  0
 16 17  1  0  0  0  0
 16 59  1  0  0  0  0
 16 60  1  0  0  0  0
 17 18  1  0  0  0  0
 17 38  1  0  0  0  0
 18 19  1  0  0  0  0
 18 61  1  0  0  0  0
 18 62  1  0  0  0  0
 19 20  2  0  0  0  0
 19 21  1  0  0  0  0
 21 22  1  0  0  0  0
 21 63  1  0  0  0  0
 22 23  1  0  0  0  0
 22 37  2  0  0  0  0
 23 24  2  0  0  0  0
 23 64  1  0  0  0  0
 24 25  1  0  0  0  0
 24 65  1  0  0  0  0
 25 26  1  0  0  0  0
 25 36  2  0  0  0  0
 26 27  2  0  0  0  0
 26 28  1  0  0  0  0
 28 29  2  0  0  0  0
 28 66  1  0  0  0  0
 29 30  1  0  0  0  0
 29 67  1  0  0  0  0
 30 31  1  0  0  0  0
 30 35  2  0  0  0  0
 31 32  2  0  0  0  0
 31 68  1  0  0  0  0
 32 33  1  0  0  0  0
 32 69  1  0  0  0  0
 33 34  2  0  0  0  0
 33 70  1  0  0  0  0
 34 35  1  0  0  0  0
 34 71  1  0  0  0  0
 35 72  1  0  0  0  0
 36 37  1  0  0  0  0
 36 73  1  0  0  0  0
 37 74  1  0  0  0  0
 38 39  1  0  0  0  0
 38 75  1  0  0  0  0
 38 76  1  0  0  0  0
 39 77  1  0  0  0  0
 39 78  1  0  0  0  0
 40 41  1  0  0  0  0
 40 42  2  0  0  0  0
 42 43  1  0  0  0  0
 42 79  1  0  0  0  0
 43 44  1  0  0  0  0
 44 45  2  0  0  0  0
M  END
>  <Line_Number>
189


> <IC50>
2413400

$$$$
