15086385.0
 OpenBabel09092522103D

 32 32  0  0  0  0  0  0  0  0999 V2000
    0.8751   -0.0219    0.0703 C   0  0  0  0  0  0  0  0  0  0  0  0
    2.3948   -0.0062    0.0410 C   0  0  0  0  0  0  0  0  0  0  0  0
    2.9465    1.1564    0.8595 C   0  0  0  0  0  0  0  0  0  0  0  0
    4.4755    1.1860    0.8396 C   0  0  0  0  0  0  0  0  0  0  0  0
    4.9864    2.3641    1.6662 C   0  0  0  0  0  0  0  0  0  0  0  0
    6.5143    2.4423    1.6867 C   0  0  0  0  0  0  0  0  0  0  0  0
    6.9715    3.6202    2.5124 C   0  0  0  0  0  0  0  0  0  0  0  0
    7.2038    3.4906    3.8910 C   0  0  0  0  0  0  0  0  0  0  0  0
    7.5263    4.6090    4.6677 C   0  0  0  0  0  0  0  0  0  0  0  0
    7.6050    5.8590    4.0593 C   0  0  0  0  0  0  0  0  0  0  0  0
    7.8765    6.9938    4.7713 O   0  0  0  0  0  0  0  0  0  0  0  0
    7.3920    5.9892    2.6907 C   0  0  0  0  0  0  0  0  0  0  0  0
    7.4598    7.2167    2.0981 O   0  0  0  0  0  0  0  0  0  0  0  0
    7.0849    4.8831    1.9129 C   0  0  0  0  0  0  0  0  0  0  0  0
    0.4924   -0.8623   -0.5175 H   0  0  0  0  0  0  0  0  0  0  0  0
    0.4657    0.9025   -0.3501 H   0  0  0  0  0  0  0  0  0  0  0  0
    0.5044   -0.1255    1.0952 H   0  0  0  0  0  0  0  0  0  0  0  0
    2.7361    0.0742   -0.9973 H   0  0  0  0  0  0  0  0  0  0  0  0
    2.7748   -0.9544    0.4376 H   0  0  0  0  0  0  0  0  0  0  0  0
    2.5949    1.0767    1.8958 H   0  0  0  0  0  0  0  0  0  0  0  0
    2.5572    2.1019    0.4613 H   0  0  0  0  0  0  0  0  0  0  0  0
    4.8305    1.2761   -0.1940 H   0  0  0  0  0  0  0  0  0  0  0  0
    4.8726    0.2460    1.2412 H   0  0  0  0  0  0  0  0  0  0  0  0
    4.6089    2.2785    2.6931 H   0  0  0  0  0  0  0  0  0  0  0  0
    4.5692    3.2932    1.2558 H   0  0  0  0  0  0  0  0  0  0  0  0
    6.9061    2.5419    0.6655 H   0  0  0  0  0  0  0  0  0  0  0  0
    6.9379    1.5152    2.0898 H   0  0  0  0  0  0  0  0  0  0  0  0
    7.1199    2.5173    4.3696 H   0  0  0  0  0  0  0  0  0  0  0  0
    7.6964    4.4873    5.7307 H   0  0  0  0  0  0  0  0  0  0  0  0
    7.9629    6.7472    5.7085 H   0  0  0  0  0  0  0  0  0  0  0  0
    7.6520    7.8305    2.8353 H   0  0  0  0  0  0  0  0  0  0  0  0
    6.9136    5.0141    0.8466 H   0  0  0  0  0  0  0  0  0  0  0  0
  1  2  1  0  0  0  0
  1 15  1  0  0  0  0
  1 16  1  0  0  0  0
  1 17  1  0  0  0  0
  2  3  1  0  0  0  0
  2 18  1  0  0  0  0
  2 19  1  0  0  0  0
  3  4  1  0  0  0  0
  3 20  1  0  0  0  0
  3 21  1  0  0  0  0
  4  5  1  0  0  0  0
  4 22  1  0  0  0  0
  4 23  1  0  0  0  0
  5  6  1  0  0  0  0
  5 24  1  0  0  0  0
  5 25  1  0  0  0  0
  6  7  1  0  0  0  0
  6 26  1  0  0  0  0
  6 27  1  0  0  0  0
  7  8  1  0  0  0  0
  7 14  2  0  0  0  0
  8  9  2  0  0  0  0
  8 28  1  0  0  0  0
  9 10  1  0  0  0  0
  9 29  1  0  0  0  0
 10 11  1  0  0  0  0
 10 12  2  0  0  0  0
 11 30  1  0  0  0  0
 12 13  1  0  0  0  0
 12 14  1  0  0  0  0
 13 31  1  0  0  0  0
 14 32  1  0  0  0  0
M  END
>  <Line_Number>
18


> <IC50>
45050

$$$$
