386840
 OpenBabel09092522103D

 49 52  0  0  1  0  0  0  0  0999 V2000
    3.1156    0.4628   -1.3636 C   0  0  0  0  0  0  0  0  0  0  0  0
    2.7533    0.2198    0.1052 C   0  0  1  0  0  0  0  0  0  0  0  0
    2.4450    1.5245    0.8364 C   0  0  0  0  0  0  0  0  0  0  0  0
    1.3435    2.2001    0.2254 O   0  0  0  0  0  0  0  0  0  0  0  0
    0.2113    1.4134    0.1308 C   0  0  0  0  0  0  0  0  0  0  0  0
   -1.0374    2.0545   -0.0583 C   0  0  0  0  0  0  0  0  0  0  0  0
   -1.2325    3.4413   -0.2358 N   0  0  0  0  0  0  0  0  0  0  0  0
   -0.1835    4.4056    0.1527 C   0  0  0  0  0  0  0  0  0  0  0  0
   -0.7405    5.8514    0.1147 C   0  0  0  0  0  0  0  0  0  0  0  0
   -1.3073    6.2102   -1.2058 N   0  0  0  0  0  0  0  0  0  0  0  0
   -1.8668    7.5585   -1.1808 C   0  0  0  0  0  0  0  0  0  0  0  0
   -2.3480    5.2214   -1.5639 C   0  0  0  0  0  0  0  0  0  0  0  0
   -1.8045    3.7754   -1.5662 C   0  0  0  0  0  0  0  0  0  0  0  0
   -2.1750    1.2110   -0.0690 C   0  0  0  0  0  0  0  0  0  0  0  0
   -3.4040    1.7477   -0.1648 F   0  0  0  0  0  0  0  0  0  0  0  0
   -2.0975   -0.1739    0.0211 C   0  0  0  0  0  0  0  0  0  0  0  0
   -0.8483   -0.7783    0.1082 C   0  0  0  0  0  0  0  0  0  0  0  0
   -0.7542   -2.2599    0.1236 C   0  0  0  0  0  0  0  0  0  0  0  0
   -1.7718   -2.9491    0.1107 O   0  0  0  0  0  0  0  0  0  0  0  0
    0.5940   -2.8767    0.1295 C   0  0  0  0  0  0  0  0  0  0  0  0
    0.8543   -4.3416    0.0726 C   0  0  0  0  0  0  0  0  0  0  0  0
    1.9929   -4.8037    0.0262 O   0  0  0  0  0  0  0  0  0  0  0  0
   -0.2759   -5.1409    0.0638 N   0  0  0  0  0  0  0  0  0  0  0  0
   -0.1465   -6.5477    0.0491 N   0  0  0  0  0  0  0  0  0  0  0  0
    1.6440   -2.0407    0.1639 C   0  0  0  0  0  0  0  0  0  0  0  0
    1.5786   -0.6605    0.2026 N   0  0  0  0  0  0  0  0  0  0  0  0
    0.3224   -0.0042    0.1570 C   0  0  0  0  0  0  0  0  0  0  0  0
    3.9906    1.1175   -1.4394 H   0  0  0  0  0  0  0  0  0  0  0  0
    2.2976    0.9330   -1.9206 H   0  0  0  0  0  0  0  0  0  0  0  0
    3.3518   -0.4789   -1.8688 H   0  0  0  0  0  0  0  0  0  0  0  0
    3.6083   -0.2568    0.6013 H   0  0  0  0  0  0  0  0  0  0  0  0
    3.3082    2.1978    0.7960 H   0  0  0  0  0  0  0  0  0  0  0  0
    2.2198    1.3503    1.8971 H   0  0  0  0  0  0  0  0  0  0  0  0
    0.6682    4.3513   -0.5368 H   0  0  0  0  0  0  0  0  0  0  0  0
    0.1615    4.2057    1.1737 H   0  0  0  0  0  0  0  0  0  0  0  0
    0.0788    6.5391    0.3568 H   0  0  0  0  0  0  0  0  0  0  0  0
   -1.5034    5.9573    0.8977 H   0  0  0  0  0  0  0  0  0  0  0  0
   -1.0855    8.2917   -0.9528 H   0  0  0  0  0  0  0  0  0  0  0  0
   -2.6677    7.6645   -0.4405 H   0  0  0  0  0  0  0  0  0  0  0  0
   -2.2699    7.8234   -2.1646 H   0  0  0  0  0  0  0  0  0  0  0  0
   -2.7366    5.4439   -2.5646 H   0  0  0  0  0  0  0  0  0  0  0  0
   -3.1900    5.2821   -0.8609 H   0  0  0  0  0  0  0  0  0  0  0  0
   -1.0269    3.6723   -2.3358 H   0  0  0  0  0  0  0  0  0  0  0  0
   -2.6271    3.1104   -1.8497 H   0  0  0  0  0  0  0  0  0  0  0  0
   -3.0117   -0.7594   -0.0022 H   0  0  0  0  0  0  0  0  0  0  0  0
   -1.2073   -4.7155    0.1484 H   0  0  0  0  0  0  0  0  0  0  0  0
    0.8547   -6.7562    0.1643 H   0  0  0  0  0  0  0  0  0  0  0  0
   -0.3669   -6.8719   -0.8954 H   0  0  0  0  0  0  0  0  0  0  0  0
    2.6623   -2.4254    0.1579 H   0  0  0  0  0  0  0  0  0  0  0  0
  1  2  1  0  0  0  0
  1 28  1  0  0  0  0
  1 29  1  0  0  0  0
  1 30  1  0  0  0  0
  2  3  1  0  0  0  0
  2 26  1  0  0  0  0
  2 31  1  1  0  0  0
  3  4  1  0  0  0  0
  3 32  1  0  0  0  0
  3 33  1  0  0  0  0
  4  5  1  0  0  0  0
  5  6  1  0  0  0  0
  5 27  2  0  0  0  0
  6  7  1  0  0  0  0
  6 14  2  0  0  0  0
  7  8  1  0  0  0  0
  7 13  1  0  0  0  0
  8  9  1  0  0  0  0
  8 34  1  0  0  0  0
  8 35  1  0  0  0  0
  9 10  1  0  0  0  0
  9 36  1  0  0  0  0
  9 37  1  0  0  0  0
 10 11  1  0  0  0  0
 10 12  1  0  0  0  0
 11 38  1  0  0  0  0
 11 39  1  0  0  0  0
 11 40  1  0  0  0  0
 12 13  1  0  0  0  0
 12 41  1  0  0  0  0
 12 42  1  0  0  0  0
 13 43  1  0  0  0  0
 13 44  1  0  0  0  0
 14 15  1  0  0  0  0
 14 16  1  0  0  0  0
 16 17  2  0  0  0  0
 16 45  1  0  0  0  0
 17 18  1  0  0  0  0
 17 27  1  0  0  0  0
 18 19  2  0  0  0  0
 18 20  1  0  0  0  0
 20 21  1  0  0  0  0
 20 25  2  0  0  0  0
 21 22  2  0  0  0  0
 21 23  1  0  0  0  0
 23 24  1  0  0  0  0
 23 46  1  0  0  0  0
 24 47  1  0  0  0  0
 24 48  1  0  0  0  0
 25 26  1  0  0  0  0
 25 49  1  0  0  0  0
 26 27  1  0  0  0  0
M  END
>  <Line_Number>
190


> <IC50>
772340

$$$$
