386825
 OpenBabel09092522103D

 68 72  0  0  0  0  0  0  0  0999 V2000
    5.1039    4.6351    2.2306 C   0  0  0  0  0  0  0  0  0  0  0  0
    5.9460    3.7988    1.4371 O   0  0  0  0  0  0  0  0  0  0  0  0
    5.3976    3.3101    0.2794 C   0  0  0  0  0  0  0  0  0  0  0  0
    4.4581    4.0489   -0.4458 C   0  0  0  0  0  0  0  0  0  0  0  0
    3.8221    3.4961   -1.5551 C   0  0  0  0  0  0  0  0  0  0  0  0
    2.6525    4.1532   -2.1908 C   0  0  0  0  0  0  0  0  0  0  0  0
    2.6119    4.1529   -3.4197 O   0  0  0  0  0  0  0  0  0  0  0  0
    1.6344    4.6820   -1.3997 N   0  0  0  0  0  0  0  0  0  0  0  0
    1.5235    4.6416    0.0699 C   0  0  0  0  0  0  0  0  0  0  0  0
    0.2141    4.0060    0.5506 C   0  0  0  0  0  0  0  0  0  0  0  0
   -0.9176    4.6170   -0.1574 N   0  0  0  0  0  0  0  0  0  0  0  0
   -2.0507    4.9556    0.5448 C   0  0  0  0  0  0  0  0  0  0  0  0
   -1.8928    5.7154    1.7157 C   0  0  0  0  0  0  0  0  0  0  0  0
   -2.9651    6.0490    2.5365 C   0  0  0  0  0  0  0  0  0  0  0  0
   -4.2424    5.5587    2.2017 C   0  0  0  0  0  0  0  0  0  0  0  0
   -4.4552    4.8911    0.9961 C   0  0  0  0  0  0  0  0  0  0  0  0
   -3.3631    4.6167    0.1705 C   0  0  0  0  0  0  0  0  0  0  0  0
   -3.5882    3.9597   -0.9763 F   0  0  0  0  0  0  0  0  0  0  0  0
   -5.3376    5.7357    3.2050 C   0  0  0  0  0  0  0  0  0  0  0  0
   -6.5035    5.4580    2.9552 O   0  0  0  0  0  0  0  0  0  0  0  0
   -4.9164    6.2838    4.5340 C   0  0  0  0  0  0  0  0  0  0  0  0
   -4.6005    5.3372    5.6475 C   0  0  0  0  0  0  0  0  0  0  0  0
   -4.8068    4.1238    5.5835 O   0  0  0  0  0  0  0  0  0  0  0  0
   -4.0418    5.9253    6.7593 N   0  0  0  0  0  0  0  0  0  0  0  0
   -3.6729    5.0967    7.8388 O   0  0  0  0  0  0  0  0  0  0  0  0
   -3.9947    7.2547    4.3456 C   0  0  0  0  0  0  0  0  0  0  0  0
   -2.8015    6.9263    3.6572 N   0  0  0  0  0  0  0  0  0  0  0  0
   -1.6145    6.7299    4.5231 C   0  0  0  0  0  0  0  0  0  0  0  0
   -1.1184    7.8415    5.4117 C   0  0  0  0  0  0  0  0  0  0  0  0
   -0.2960    7.3992    4.2438 C   0  0  0  0  0  0  0  0  0  0  0  0
   -0.8501    4.5335   -1.6222 C   0  0  0  0  0  0  0  0  0  0  0  0
    0.4469    5.2480   -2.0713 C   0  0  0  0  0  0  0  0  0  0  0  0
    4.2774    2.2908   -2.0895 C   0  0  0  0  0  0  0  0  0  0  0  0
    5.3058    1.5931   -1.4496 C   0  0  0  0  0  0  0  0  0  0  0  0
    5.7891    0.3958   -1.9195 O   0  0  0  0  0  0  0  0  0  0  0  0
    5.8353    0.2677   -3.3378 C   0  0  0  0  0  0  0  0  0  0  0  0
    5.8263    2.0678   -0.2240 C   0  0  0  0  0  0  0  0  0  0  0  0
    6.7928    1.2723    0.3461 O   0  0  0  0  0  0  0  0  0  0  0  0
    6.8061    1.2012    1.7657 C   0  0  0  0  0  0  0  0  0  0  0  0
    5.6072    4.8137    3.1854 H   0  0  0  0  0  0  0  0  0  0  0  0
    4.1433    4.1510    2.4437 H   0  0  0  0  0  0  0  0  0  0  0  0
    4.9516    5.6111    1.7597 H   0  0  0  0  0  0  0  0  0  0  0  0
    4.1838    5.0526   -0.1434 H   0  0  0  0  0  0  0  0  0  0  0  0
    1.5843    5.6814    0.4158 H   0  0  0  0  0  0  0  0  0  0  0  0
    2.3253    4.0826    0.5447 H   0  0  0  0  0  0  0  0  0  0  0  0
    0.1546    4.1186    1.6401 H   0  0  0  0  0  0  0  0  0  0  0  0
    0.2294    2.9271    0.3521 H   0  0  0  0  0  0  0  0  0  0  0  0
   -0.9036    6.0921    1.9566 H   0  0  0  0  0  0  0  0  0  0  0  0
   -5.4491    4.5636    0.7008 H   0  0  0  0  0  0  0  0  0  0  0  0
   -3.8170    6.9100    6.8451 H   0  0  0  0  0  0  0  0  0  0  0  0
   -4.1437    4.2611    7.6356 H   0  0  0  0  0  0  0  0  0  0  0  0
   -4.3541    8.0865    3.7276 H   0  0  0  0  0  0  0  0  0  0  0  0
   -1.5706    5.7232    4.9415 H   0  0  0  0  0  0  0  0  0  0  0  0
   -0.7805    7.5781    6.4074 H   0  0  0  0  0  0  0  0  0  0  0  0
   -1.5903    8.8146    5.3441 H   0  0  0  0  0  0  0  0  0  0  0  0
    0.6095    6.8328    4.4458 H   0  0  0  0  0  0  0  0  0  0  0  0
   -0.2215    8.0646    3.3931 H   0  0  0  0  0  0  0  0  0  0  0  0
   -1.7044    5.0207   -2.1010 H   0  0  0  0  0  0  0  0  0  0  0  0
   -0.8285    3.4815   -1.9330 H   0  0  0  0  0  0  0  0  0  0  0  0
    0.3998    6.3057   -1.7783 H   0  0  0  0  0  0  0  0  0  0  0  0
    0.5384    5.2095   -3.1587 H   0  0  0  0  0  0  0  0  0  0  0  0
    3.8072    1.9041   -2.9892 H   0  0  0  0  0  0  0  0  0  0  0  0
    6.4722   -0.5901   -3.5761 H   0  0  0  0  0  0  0  0  0  0  0  0
    6.2760    1.1524   -3.8114 H   0  0  0  0  0  0  0  0  0  0  0  0
    4.8403    0.0612   -3.7447 H   0  0  0  0  0  0  0  0  0  0  0  0
    7.3424    0.2889    2.0472 H   0  0  0  0  0  0  0  0  0  0  0  0
    5.7974    1.1353    2.1889 H   0  0  0  0  0  0  0  0  0  0  0  0
    7.3648    2.0395    2.1907 H   0  0  0  0  0  0  0  0  0  0  0  0
  1  2  1  0  0  0  0
  1 40  1  0  0  0  0
  1 41  1  0  0  0  0
  1 42  1  0  0  0  0
  2  3  1  0  0  0  0
  3  4  1  0  0  0  0
  3 37  2  0  0  0  0
  4  5  2  0  0  0  0
  4 43  1  0  0  0  0
  5  6  1  0  0  0  0
  5 33  1  0  0  0  0
  6  7  2  0  0  0  0
  6  8  1  0  0  0  0
  8  9  1  0  0  0  0
  8 32  1  0  0  0  0
  9 10  1  0  0  0  0
  9 44  1  0  0  0  0
  9 45  1  0  0  0  0
 10 11  1  0  0  0  0
 10 46  1  0  0  0  0
 10 47  1  0  0  0  0
 11 12  1  0  0  0  0
 11 31  1  0  0  0  0
 12 13  1  0  0  0  0
 12 17  2  0  0  0  0
 13 14  2  0  0  0  0
 13 48  1  0  0  0  0
 14 15  1  0  0  0  0
 14 27  1  0  0  0  0
 15 16  2  0  0  0  0
 15 19  1  0  0  0  0
 16 17  1  0  0  0  0
 16 49  1  0  0  0  0
 17 18  1  0  0  0  0
 19 20  2  0  0  0  0
 19 21  1  0  0  0  0
 21 22  1  0  0  0  0
 21 26  2  0  0  0  0
 22 23  2  0  0  0  0
 22 24  1  0  0  0  0
 24 25  1  0  0  0  0
 24 50  1  0  0  0  0
 25 51  1  0  0  0  0
 26 27  1  0  0  0  0
 26 52  1  0  0  0  0
 27 28  1  0  0  0  0
 28 29  1  0  0  0  0
 28 30  1  0  0  0  0
 28 53  1  0  0  0  0
 29 30  1  0  0  0  0
 29 54  1  0  0  0  0
 29 55  1  0  0  0  0
 30 56  1  0  0  0  0
 30 57  1  0  0  0  0
 31 32  1  0  0  0  0
 31 58  1  0  0  0  0
 31 59  1  0  0  0  0
 32 60  1  0  0  0  0
 32 61  1  0  0  0  0
 33 34  2  0  0  0  0
 33 62  1  0  0  0  0
 34 35  1  0  0  0  0
 34 37  1  0  0  0  0
 35 36  1  0  0  0  0
 36 63  1  0  0  0  0
 36 64  1  0  0  0  0
 36 65  1  0  0  0  0
 37 38  1  0  0  0  0
 38 39  1  0  0  0  0
 39 66  1  0  0  0  0
 39 67  1  0  0  0  0
 39 68  1  0  0  0  0
M  END
>  <Line_Number>
193


> <IC50>
7170

$$$$
