85689664.0
 OpenBabel09092522103D

 21 22  0  0  0  0  0  0  0  0999 V2000
    1.8854   -0.6079   -1.2484 O   0  0  0  0  0  0  0  0  0  0  0  0
    0.9233   -0.1937   -0.6277 C   0  0  0  0  0  0  0  0  0  0  0  0
    0.6564    1.1244   -0.3876 O   0  0  0  0  0  0  0  0  0  0  0  0
   -0.5652    1.2326    0.3407 C   0  0  0  0  0  0  0  0  0  0  0  0
   -1.0011   -0.1668    0.5101 C   0  0  0  0  0  0  0  0  0  0  0  0
   -2.1552   -0.5053    1.1661 O   0  0  0  0  0  0  0  0  0  0  0  0
   -0.1439   -1.0217   -0.0444 C   0  0  0  0  0  0  0  0  0  0  0  0
   -0.2160   -2.4748   -0.0867 C   0  0  0  0  0  0  0  0  0  0  0  0
   -0.8660   -3.0817   -1.1726 C   0  0  0  0  0  0  0  0  0  0  0  0
   -0.9653   -4.4729   -1.2517 C   0  0  0  0  0  0  0  0  0  0  0  0
   -0.4159   -5.2646   -0.2462 C   0  0  0  0  0  0  0  0  0  0  0  0
   -0.5414   -6.9777   -0.3469 Cl  0  0  0  0  0  0  0  0  0  0  0  0
    0.2301   -4.6811    0.8405 C   0  0  0  0  0  0  0  0  0  0  0  0
    0.3270   -3.2888    0.9214 C   0  0  0  0  0  0  0  0  0  0  0  0
    1.1283   -2.6168    2.3002 Cl  0  0  0  0  0  0  0  0  0  0  0  0
   -1.2810    1.8183   -0.2432 H   0  0  0  0  0  0  0  0  0  0  0  0
   -0.3734    1.7263    1.2977 H   0  0  0  0  0  0  0  0  0  0  0  0
   -2.5643    0.2955    1.5395 H   0  0  0  0  0  0  0  0  0  0  0  0
   -1.2993   -2.4749   -1.9654 H   0  0  0  0  0  0  0  0  0  0  0  0
   -1.4714   -4.9293   -2.0988 H   0  0  0  0  0  0  0  0  0  0  0  0
    0.6552   -5.3061    1.6212 H   0  0  0  0  0  0  0  0  0  0  0  0
  1  2  2  0  0  0  0
  2  3  1  0  0  0  0
  2  7  1  0  0  0  0
  3  4  1  0  0  0  0
  4  5  1  0  0  0  0
  4 16  1  0  0  0  0
  4 17  1  0  0  0  0
  5  6  1  0  0  0  0
  5  7  2  0  0  0  0
  6 18  1  0  0  0  0
  7  8  1  0  0  0  0
  8  9  1  0  0  0  0
  8 14  2  0  0  0  0
  9 10  2  0  0  0  0
  9 19  1  0  0  0  0
 10 11  1  0  0  0  0
 10 20  1  0  0  0  0
 11 12  1  0  0  0  0
 11 13  2  0  0  0  0
 13 14  1  0  0  0  0
 13 21  1  0  0  0  0
 14 15  1  0  0  0  0
M  END
>  <Line_Number>
196


> <IC50>
100000

$$$$
