54706943.0
 OpenBabel09092522103D

 29 30  0  0  0  0  0  0  0  0999 V2000
    0.9705    0.1794    0.4904 C   0  0  0  0  0  0  0  0  0  0  0  0
    2.3208    0.0797    0.0495 O   0  0  0  0  0  0  0  0  0  0  0  0
    2.9768    1.2562   -0.1988 C   0  0  0  0  0  0  0  0  0  0  0  0
    2.6222    2.4617    0.4217 C   0  0  0  0  0  0  0  0  0  0  0  0
    3.3572    3.6288    0.1978 C   0  0  0  0  0  0  0  0  0  0  0  0
    4.4681    3.6120   -0.6455 C   0  0  0  0  0  0  0  0  0  0  0  0
    5.2230    4.8345   -0.8602 C   0  0  0  0  0  0  0  0  0  0  0  0
    6.2616    5.3084   -0.1700 C   0  0  0  0  0  0  0  0  0  0  0  0
    6.9033    4.7271    0.8891 O   0  0  0  0  0  0  0  0  0  0  0  0
    6.6853    6.6352   -0.6533 C   0  0  0  0  0  0  0  0  0  0  0  0
    5.7928    6.9049   -1.7361 O   0  0  0  0  0  0  0  0  0  0  0  0
    4.9224    5.8644   -1.8713 C   0  0  0  0  0  0  0  0  0  0  0  0
    4.0294    5.8060   -2.6978 O   0  0  0  0  0  0  0  0  0  0  0  0
    4.8408    2.4103   -1.2528 C   0  0  0  0  0  0  0  0  0  0  0  0
    4.0969    1.2362   -1.0486 C   0  0  0  0  0  0  0  0  0  0  0  0
    4.6137    0.1497   -1.7088 O   0  0  0  0  0  0  0  0  0  0  0  0
    3.6832   -0.8318   -2.1516 C   0  0  0  0  0  0  0  0  0  0  0  0
    0.5507   -0.8311    0.5152 H   0  0  0  0  0  0  0  0  0  0  0  0
    0.3713    0.7755   -0.2062 H   0  0  0  0  0  0  0  0  0  0  0  0
    0.9107    0.5796    1.5072 H   0  0  0  0  0  0  0  0  0  0  0  0
    1.7844    2.5254    1.1086 H   0  0  0  0  0  0  0  0  0  0  0  0
    3.0507    4.5486    0.6928 H   0  0  0  0  0  0  0  0  0  0  0  0
    6.5211    3.8415    1.0415 H   0  0  0  0  0  0  0  0  0  0  0  0
    7.7135    6.6366   -1.0246 H   0  0  0  0  0  0  0  0  0  0  0  0
    6.5635    7.4102    0.1094 H   0  0  0  0  0  0  0  0  0  0  0  0
    5.7059    2.3736   -1.9127 H   0  0  0  0  0  0  0  0  0  0  0  0
    4.1691   -1.4145   -2.9409 H   0  0  0  0  0  0  0  0  0  0  0  0
    2.7815   -0.3829   -2.5825 H   0  0  0  0  0  0  0  0  0  0  0  0
    3.4399   -1.5294   -1.3450 H   0  0  0  0  0  0  0  0  0  0  0  0
  1  2  1  0  0  0  0
  1 18  1  0  0  0  0
  1 19  1  0  0  0  0
  1 20  1  0  0  0  0
  2  3  1  0  0  0  0
  3  4  1  0  0  0  0
  3 15  2  0  0  0  0
  4  5  2  0  0  0  0
  4 21  1  0  0  0  0
  5  6  1  0  0  0  0
  5 22  1  0  0  0  0
  6  7  1  0  0  0  0
  6 14  2  0  0  0  0
  7  8  2  0  0  0  0
  7 12  1  0  0  0  0
  8  9  1  0  0  0  0
  8 10  1  0  0  0  0
  9 23  1  0  0  0  0
 10 11  1  0  0  0  0
 10 24  1  0  0  0  0
 10 25  1  0  0  0  0
 11 12  1  0  0  0  0
 12 13  2  0  0  0  0
 14 15  1  0  0  0  0
 14 26  1  0  0  0  0
 15 16  1  0  0  0  0
 16 17  1  0  0  0  0
 17 27  1  0  0  0  0
 17 28  1  0  0  0  0
 17 29  1  0  0  0  0
M  END
>  <Line_Number>
197


> <IC50>
20400

$$$$
