67482681.0
 OpenBabel09092522103D

 21 22  0  0  0  0  0  0  0  0999 V2000
    1.9408   -0.6888    1.0671 O   0  0  0  0  0  0  0  0  0  0  0  0
    0.9400   -0.2436    0.5330 C   0  0  0  0  0  0  0  0  0  0  0  0
    0.6740    1.0906    0.4126 O   0  0  0  0  0  0  0  0  0  0  0  0
   -0.5654    1.2609   -0.2592 C   0  0  0  0  0  0  0  0  0  0  0  0
   -1.0207   -0.1177   -0.5193 C   0  0  0  0  0  0  0  0  0  0  0  0
   -2.2236   -0.3652   -1.1301 O   0  0  0  0  0  0  0  0  0  0  0  0
   -0.1555   -1.0350   -0.0753 C   0  0  0  0  0  0  0  0  0  0  0  0
   -0.2493   -2.4999   -0.1314 C   0  0  0  0  0  0  0  0  0  0  0  0
   -0.9151   -3.1420   -1.1903 C   0  0  0  0  0  0  0  0  0  0  0  0
   -1.0101   -4.5352   -1.2463 C   0  0  0  0  0  0  0  0  0  0  0  0
   -0.4301   -5.3003   -0.2454 C   0  0  0  0  0  0  0  0  0  0  0  0
   -0.5219   -6.6354   -0.2967 F   0  0  0  0  0  0  0  0  0  0  0  0
    0.2449   -4.6978    0.8066 C   0  0  0  0  0  0  0  0  0  0  0  0
    0.3360   -3.3028    0.8624 C   0  0  0  0  0  0  0  0  0  0  0  0
   -0.4030    1.8206   -1.1848 H   0  0  0  0  0  0  0  0  0  0  0  0
   -1.2571    1.8079    0.3878 H   0  0  0  0  0  0  0  0  0  0  0  0
   -2.6872    0.4753   -1.2927 H   0  0  0  0  0  0  0  0  0  0  0  0
   -1.3698   -2.5633   -1.9917 H   0  0  0  0  0  0  0  0  0  0  0  0
   -1.5319   -5.0215   -2.0638 H   0  0  0  0  0  0  0  0  0  0  0  0
    0.6980   -5.3123    1.5779 H   0  0  0  0  0  0  0  0  0  0  0  0
    0.8701   -2.8573    1.7000 H   0  0  0  0  0  0  0  0  0  0  0  0
  1  2  2  0  0  0  0
  2  3  1  0  0  0  0
  2  7  1  0  0  0  0
  3  4  1  0  0  0  0
  4  5  1  0  0  0  0
  4 15  1  0  0  0  0
  4 16  1  0  0  0  0
  5  6  1  0  0  0  0
  5  7  2  0  0  0  0
  6 17  1  0  0  0  0
  7  8  1  0  0  0  0
  8  9  1  0  0  0  0
  8 14  2  0  0  0  0
  9 10  2  0  0  0  0
  9 18  1  0  0  0  0
 10 11  1  0  0  0  0
 10 19  1  0  0  0  0
 11 12  1  0  0  0  0
 11 13  2  0  0  0  0
 13 14  1  0  0  0  0
 13 20  1  0  0  0  0
 14 21  1  0  0  0  0
M  END
>  <Line_Number>
198


> <IC50>
27700

$$$$
