20035379.0
 OpenBabel09092522103D

 51 51  0  0  0  0  0  0  0  0999 V2000
    0.8672    0.0547   -0.0480 C   0  0  0  0  0  0  0  0  0  0  0  0
    2.3856    0.0627   -0.0351 C   0  0  0  0  0  0  0  0  0  0  0  0
    2.9206    1.3712    0.5384 C   0  0  0  0  0  0  0  0  0  0  0  0
    4.4433    1.3802    0.5516 C   0  0  0  0  0  0  0  0  0  0  0  0
    4.9687    2.6919    1.1245 C   0  0  0  0  0  0  0  0  0  0  0  0
    6.4921    2.6995    1.1378 C   0  0  0  0  0  0  0  0  0  0  0  0
    7.0171    4.0093    1.7096 C   0  0  0  0  0  0  0  0  0  0  0  0
    8.5398    4.0128    1.7213 C   0  0  0  0  0  0  0  0  0  0  0  0
    9.0669    5.3221    2.2914 C   0  0  0  0  0  0  0  0  0  0  0  0
   10.5907    5.3285    2.3022 C   0  0  0  0  0  0  0  0  0  0  0  0
   11.1108    6.6408    2.8732 C   0  0  0  0  0  0  0  0  0  0  0  0
   12.6369    6.6650    2.8925 C   0  0  0  0  0  0  0  0  0  0  0  0
   13.1294    7.9711    3.4561 C   0  0  0  0  0  0  0  0  0  0  0  0
   13.3295    9.0721    2.6026 C   0  0  0  0  0  0  0  0  0  0  0  0
   13.7199   10.3164    3.1135 C   0  0  0  0  0  0  0  0  0  0  0  0
   13.9061   10.4595    4.4828 C   0  0  0  0  0  0  0  0  0  0  0  0
   14.2746   11.6528    5.0405 O   0  0  0  0  0  0  0  0  0  0  0  0
   13.7105    9.3787    5.3339 C   0  0  0  0  0  0  0  0  0  0  0  0
   13.8853    9.5138    6.6861 O   0  0  0  0  0  0  0  0  0  0  0  0
   13.3220    8.1448    4.8279 C   0  0  0  0  0  0  0  0  0  0  0  0
   13.1137    7.1074    5.6952 O   0  0  0  0  0  0  0  0  0  0  0  0
    0.4962   -0.8876   -0.4608 H   0  0  0  0  0  0  0  0  0  0  0  0
    0.4786    0.8741   -0.6612 H   0  0  0  0  0  0  0  0  0  0  0  0
    0.4684    0.1655    0.9655 H   0  0  0  0  0  0  0  0  0  0  0  0
    2.7590   -0.0770   -1.0563 H   0  0  0  0  0  0  0  0  0  0  0  0
    2.7490   -0.7819    0.5623 H   0  0  0  0  0  0  0  0  0  0  0  0
    2.5423    1.5099    1.5588 H   0  0  0  0  0  0  0  0  0  0  0  0
    2.5523    2.2145   -0.0596 H   0  0  0  0  0  0  0  0  0  0  0  0
    4.8260    1.2438   -0.4676 H   0  0  0  0  0  0  0  0  0  0  0  0
    4.8157    0.5404    1.1519 H   0  0  0  0  0  0  0  0  0  0  0  0
    4.5897    2.8301    2.1444 H   0  0  0  0  0  0  0  0  0  0  0  0
    4.6003    3.5331    0.5250 H   0  0  0  0  0  0  0  0  0  0  0  0
    6.8727    2.5622    0.1183 H   0  0  0  0  0  0  0  0  0  0  0  0
    6.8623    1.8592    1.7379 H   0  0  0  0  0  0  0  0  0  0  0  0
    6.6376    4.1485    2.7294 H   0  0  0  0  0  0  0  0  0  0  0  0
    6.6487    4.8503    1.1089 H   0  0  0  0  0  0  0  0  0  0  0  0
    8.9187    3.8736    0.7012 H   0  0  0  0  0  0  0  0  0  0  0  0
    8.9083    3.1720    2.3215 H   0  0  0  0  0  0  0  0  0  0  0  0
    8.6877    5.4607    3.3115 H   0  0  0  0  0  0  0  0  0  0  0  0
    8.6962    6.1627    1.6919 H   0  0  0  0  0  0  0  0  0  0  0  0
   10.9691    5.1912    1.2818 H   0  0  0  0  0  0  0  0  0  0  0  0
   10.9609    4.4888    2.9027 H   0  0  0  0  0  0  0  0  0  0  0  0
   10.7182    6.7794    3.8890 H   0  0  0  0  0  0  0  0  0  0  0  0
   10.7296    7.4772    2.2732 H   0  0  0  0  0  0  0  0  0  0  0  0
   13.0317    6.5300    1.8779 H   0  0  0  0  0  0  0  0  0  0  0  0
   13.0284    5.8253    3.4799 H   0  0  0  0  0  0  0  0  0  0  0  0
   13.1664    8.9637    1.5321 H   0  0  0  0  0  0  0  0  0  0  0  0
   13.8594   11.1467    2.4297 H   0  0  0  0  0  0  0  0  0  0  0  0
   14.3520   12.3070    4.3248 H   0  0  0  0  0  0  0  0  0  0  0  0
   14.1477   10.4499    6.7972 H   0  0  0  0  0  0  0  0  0  0  0  0
   13.3058    7.4860    6.5769 H   0  0  0  0  0  0  0  0  0  0  0  0
  1  2  1  0  0  0  0
  1 22  1  0  0  0  0
  1 23  1  0  0  0  0
  1 24  1  0  0  0  0
  2  3  1  0  0  0  0
  2 25  1  0  0  0  0
  2 26  1  0  0  0  0
  3  4  1  0  0  0  0
  3 27  1  0  0  0  0
  3 28  1  0  0  0  0
  4  5  1  0  0  0  0
  4 29  1  0  0  0  0
  4 30  1  0  0  0  0
  5  6  1  0  0  0  0
  5 31  1  0  0  0  0
  5 32  1  0  0  0  0
  6  7  1  0  0  0  0
  6 33  1  0  0  0  0
  6 34  1  0  0  0  0
  7  8  1  0  0  0  0
  7 35  1  0  0  0  0
  7 36  1  0  0  0  0
  8  9  1  0  0  0  0
  8 37  1  0  0  0  0
  8 38  1  0  0  0  0
  9 10  1  0  0  0  0
  9 39  1  0  0  0  0
  9 40  1  0  0  0  0
 10 11  1  0  0  0  0
 10 41  1  0  0  0  0
 10 42  1  0  0  0  0
 11 12  1  0  0  0  0
 11 43  1  0  0  0  0
 11 44  1  0  0  0  0
 12 13  1  0  0  0  0
 12 45  1  0  0  0  0
 12 46  1  0  0  0  0
 13 14  1  0  0  0  0
 13 20  2  0  0  0  0
 14 15  2  0  0  0  0
 14 47  1  0  0  0  0
 15 16  1  0  0  0  0
 15 48  1  0  0  0  0
 16 17  1  0  0  0  0
 16 18  2  0  0  0  0
 17 49  1  0  0  0  0
 18 19  1  0  0  0  0
 18 20  1  0  0  0  0
 19 50  1  0  0  0  0
 20 21  1  0  0  0  0
 21 51  1  0  0  0  0
M  END
>  <Line_Number>
1


> <IC50>
168000

$$$$
