85518344.0
 OpenBabel09092522103D

 21 22  0  0  0  0  0  0  0  0999 V2000
   -2.1699   -0.3490   -1.1481 O   0  0  0  0  0  0  0  0  0  0  0  0
   -1.1376   -0.0670   -0.5657 C   0  0  0  0  0  0  0  0  0  0  0  0
   -0.7266    1.2110   -0.3171 O   0  0  0  0  0  0  0  0  0  0  0  0
    0.5127    1.1773    0.3770 C   0  0  0  0  0  0  0  0  0  0  0  0
    0.8062   -0.2622    0.5081 C   0  0  0  0  0  0  0  0  0  0  0  0
    1.9624   -0.7039    1.0982 O   0  0  0  0  0  0  0  0  0  0  0  0
   -0.1491   -1.0296   -0.0255 C   0  0  0  0  0  0  0  0  0  0  0  0
   -0.2187   -2.4941   -0.1055 C   0  0  0  0  0  0  0  0  0  0  0  0
   -0.8642   -3.1307   -1.1753 C   0  0  0  0  0  0  0  0  0  0  0  0
   -0.9275   -4.5270   -1.2527 C   0  0  0  0  0  0  0  0  0  0  0  0
   -0.3482   -5.3144   -0.2570 C   0  0  0  0  0  0  0  0  0  0  0  0
   -0.4522   -7.0301   -0.4207 Cl  0  0  0  0  0  0  0  0  0  0  0  0
    0.2878   -4.6992    0.8229 C   0  0  0  0  0  0  0  0  0  0  0  0
    1.0207   -5.6006    2.1031 Cl  0  0  0  0  0  0  0  0  0  0  0  0
    0.3464   -3.3015    0.8956 C   0  0  0  0  0  0  0  0  0  0  0  0
    0.3972    1.6627    1.3505 H   0  0  0  0  0  0  0  0  0  0  0  0
    1.2720    1.7013   -0.2107 H   0  0  0  0  0  0  0  0  0  0  0  0
    2.5114    0.0580    1.3573 H   0  0  0  0  0  0  0  0  0  0  0  0
   -1.3271   -2.5519   -1.9740 H   0  0  0  0  0  0  0  0  0  0  0  0
   -1.4325   -4.9905   -2.0976 H   0  0  0  0  0  0  0  0  0  0  0  0
    0.8409   -2.8448    1.7507 H   0  0  0  0  0  0  0  0  0  0  0  0
  1  2  2  0  0  0  0
  2  3  1  0  0  0  0
  2  7  1  0  0  0  0
  3  4  1  0  0  0  0
  4  5  1  0  0  0  0
  4 16  1  0  0  0  0
  4 17  1  0  0  0  0
  5  6  1  0  0  0  0
  5  7  2  0  0  0  0
  6 18  1  0  0  0  0
  7  8  1  0  0  0  0
  8  9  1  0  0  0  0
  8 15  2  0  0  0  0
  9 10  2  0  0  0  0
  9 19  1  0  0  0  0
 10 11  1  0  0  0  0
 10 20  1  0  0  0  0
 11 12  1  0  0  0  0
 11 13  2  0  0  0  0
 13 14  1  0  0  0  0
 13 15  1  0  0  0  0
 15 21  1  0  0  0  0
M  END
>  <Line_Number>
203


> <IC50>
28700

$$$$
