22353732.0
 OpenBabel09092522103D

 31 32  0  0  0  0  0  0  0  0999 V2000
    1.8742    0.1670   -0.9927 O   0  0  0  0  0  0  0  0  0  0  0  0
    2.4521   -0.3380   -0.0200 N   0  3  0  0  0  0  0  0  0  0  0  0
    2.4879   -1.5524    0.2233 O   0  5  0  0  0  0  0  0  0  0  0  0
    3.1460    0.5640    0.9075 C   0  0  0  0  0  0  0  0  0  0  0  0
    3.1399    1.9438    0.6657 C   0  0  0  0  0  0  0  0  0  0  0  0
    3.8182    2.7991    1.5389 C   0  0  0  0  0  0  0  0  0  0  0  0
    4.5053    2.2897    2.6522 C   0  0  0  0  0  0  0  0  0  0  0  0
    5.2872    3.2141    3.5614 C   0  0  0  0  0  0  0  0  0  0  0  0
    4.7746    3.1383    4.9217 N   0  0  0  0  0  0  0  0  0  0  0  0
    5.2945    3.9685    5.9179 C   0  0  0  0  0  0  0  0  0  0  0  0
    6.4600    4.7325    5.7693 C   0  0  0  0  0  0  0  0  0  0  0  0
    6.9531    5.5210    6.8172 C   0  0  0  0  0  0  0  0  0  0  0  0
    6.2975    5.5179    8.0515 C   0  0  0  0  0  0  0  0  0  0  0  0
    6.7967    6.3587    9.1462 N   0  3  0  0  0  0  0  0  0  0  0  0
    7.7887    7.0672    8.9224 O   0  0  0  0  0  0  0  0  0  0  0  0
    6.1926    6.3169   10.2276 O   0  5  0  0  0  0  0  0  0  0  0  0
    5.1702    4.7164    8.2462 C   0  0  0  0  0  0  0  0  0  0  0  0
    4.6853    3.9452    7.1835 C   0  0  0  0  0  0  0  0  0  0  0  0
    4.4920    0.9040    2.8860 C   0  0  0  0  0  0  0  0  0  0  0  0
    3.8162    0.0389    2.0197 C   0  0  0  0  0  0  0  0  0  0  0  0
    2.6237    2.3646   -0.1944 H   0  0  0  0  0  0  0  0  0  0  0  0
    3.8138    3.8705    1.3323 H   0  0  0  0  0  0  0  0  0  0  0  0
    5.2199    4.2435    3.1874 H   0  0  0  0  0  0  0  0  0  0  0  0
    6.3402    2.9086    3.5268 H   0  0  0  0  0  0  0  0  0  0  0  0
    3.7581    3.0935    4.9583 H   0  0  0  0  0  0  0  0  0  0  0  0
    7.0055    4.7475    4.8299 H   0  0  0  0  0  0  0  0  0  0  0  0
    7.8443    6.1227    6.6513 H   0  0  0  0  0  0  0  0  0  0  0  0
    4.6619    4.6749    9.2071 H   0  0  0  0  0  0  0  0  0  0  0  0
    3.8183    3.3091    7.3546 H   0  0  0  0  0  0  0  0  0  0  0  0
    5.0185    0.4949    3.7472 H   0  0  0  0  0  0  0  0  0  0  0  0
    3.8278   -1.0291    2.2220 H   0  0  0  0  0  0  0  0  0  0  0  0
  1  2  2  0  0  0  0
  2  3  1  0  0  0  0
  2  4  1  0  0  0  0
  4  5  1  0  0  0  0
  4 20  2  0  0  0  0
  5  6  2  0  0  0  0
  5 21  1  0  0  0  0
  6  7  1  0  0  0  0
  6 22  1  0  0  0  0
  7  8  1  0  0  0  0
  7 19  2  0  0  0  0
  8  9  1  0  0  0  0
  8 23  1  0  0  0  0
  8 24  1  0  0  0  0
  9 10  1  0  0  0  0
  9 25  1  0  0  0  0
 10 11  1  0  0  0  0
 10 18  2  0  0  0  0
 11 12  2  0  0  0  0
 11 26  1  0  0  0  0
 12 13  1  0  0  0  0
 12 27  1  0  0  0  0
 13 14  1  0  0  0  0
 13 17  2  0  0  0  0
 14 15  2  0  0  0  0
 14 16  1  0  0  0  0
 17 18  1  0  0  0  0
 17 28  1  0  0  0  0
 18 29  1  0  0  0  0
 19 20  1  0  0  0  0
 19 30  1  0  0  0  0
 20 31  1  0  0  0  0
M  CHG  4   2   1   3  -1  14   1  16  -1
M  END
>  <Line_Number>
204


> <IC50>
76250

$$$$
