292416.0
 OpenBabel09092522103D

 35 36  0  0  0  0  0  0  0  0999 V2000
    1.2987   -0.1099    0.5766 C   0  0  0  0  0  0  0  0  0  0  0  0
    2.5569   -0.0116   -0.1548 N   0  0  0  0  0  0  0  0  0  0  0  0
    3.2821   -1.2573   -0.3917 C   0  0  0  0  0  0  0  0  0  0  0  0
    3.2711    1.1875   -0.1893 C   0  0  0  0  0  0  0  0  0  0  0  0
    2.8482    2.3468    0.4894 C   0  0  0  0  0  0  0  0  0  0  0  0
    3.5646    3.5542    0.4228 C   0  0  0  0  0  0  0  0  0  0  0  0
    4.7256    3.6569   -0.3518 C   0  0  0  0  0  0  0  0  0  0  0  0
    5.4415    4.9741   -0.5290 C   0  0  0  0  0  0  0  0  0  0  0  0
    6.4548    5.1696    0.4959 N   0  0  0  0  0  0  0  0  0  0  0  0
    7.1897    6.3619    0.5252 C   0  0  0  0  0  0  0  0  0  0  0  0
    7.1603    7.3265   -0.4910 C   0  0  0  0  0  0  0  0  0  0  0  0
    7.9235    8.4982   -0.4032 C   0  0  0  0  0  0  0  0  0  0  0  0
    8.7639    8.6972    0.6862 C   0  0  0  0  0  0  0  0  0  0  0  0
    9.6833   10.1459    0.8065 Cl  0  0  0  0  0  0  0  0  0  0  0  0
    8.8632    7.7259    1.6752 C   0  0  0  0  0  0  0  0  0  0  0  0
    8.0884    6.5632    1.5848 C   0  0  0  0  0  0  0  0  0  0  0  0
    5.1750    2.5155   -1.0083 C   0  0  0  0  0  0  0  0  0  0  0  0
    4.4556    1.3121   -0.9356 C   0  0  0  0  0  0  0  0  0  0  0  0
    0.8700   -1.1154    0.5016 H   0  0  0  0  0  0  0  0  0  0  0  0
    0.5537    0.5750    0.1574 H   0  0  0  0  0  0  0  0  0  0  0  0
    1.4377    0.1060    1.6411 H   0  0  0  0  0  0  0  0  0  0  0  0
    2.6663   -2.1356   -0.1744 H   0  0  0  0  0  0  0  0  0  0  0  0
    4.1728   -1.3209    0.2442 H   0  0  0  0  0  0  0  0  0  0  0  0
    3.5788   -1.3418   -1.4434 H   0  0  0  0  0  0  0  0  0  0  0  0
    1.9451    2.3359    1.0896 H   0  0  0  0  0  0  0  0  0  0  0  0
    3.1898    4.4181    0.9687 H   0  0  0  0  0  0  0  0  0  0  0  0
    4.7045    5.7868   -0.5098 H   0  0  0  0  0  0  0  0  0  0  0  0
    5.9079    4.9805   -1.5229 H   0  0  0  0  0  0  0  0  0  0  0  0
    6.1232    4.9183    1.4252 H   0  0  0  0  0  0  0  0  0  0  0  0
    6.5269    7.2067   -1.3647 H   0  0  0  0  0  0  0  0  0  0  0  0
    7.8503    9.2470   -1.1871 H   0  0  0  0  0  0  0  0  0  0  0  0
    9.5352    7.8622    2.5175 H   0  0  0  0  0  0  0  0  0  0  0  0
    8.1950    5.8032    2.3556 H   0  0  0  0  0  0  0  0  0  0  0  0
    6.0794    2.5491   -1.6187 H   0  0  0  0  0  0  0  0  0  0  0  0
    4.8366    0.4758   -1.5132 H   0  0  0  0  0  0  0  0  0  0  0  0
  1  2  1  0  0  0  0
  1 19  1  0  0  0  0
  1 20  1  0  0  0  0
  1 21  1  0  0  0  0
  2  3  1  0  0  0  0
  2  4  1  0  0  0  0
  3 22  1  0  0  0  0
  3 23  1  0  0  0  0
  3 24  1  0  0  0  0
  4  5  1  0  0  0  0
  4 18  2  0  0  0  0
  5  6  2  0  0  0  0
  5 25  1  0  0  0  0
  6  7  1  0  0  0  0
  6 26  1  0  0  0  0
  7  8  1  0  0  0  0
  7 17  2  0  0  0  0
  8  9  1  0  0  0  0
  8 27  1  0  0  0  0
  8 28  1  0  0  0  0
  9 10  1  0  0  0  0
  9 29  1  0  0  0  0
 10 11  1  0  0  0  0
 10 16  2  0  0  0  0
 11 12  2  0  0  0  0
 11 30  1  0  0  0  0
 12 13  1  0  0  0  0
 12 31  1  0  0  0  0
 13 14  1  0  0  0  0
 13 15  2  0  0  0  0
 15 16  1  0  0  0  0
 15 32  1  0  0  0  0
 16 33  1  0  0  0  0
 17 18  1  0  0  0  0
 17 34  1  0  0  0  0
 18 35  1  0  0  0  0
M  END
>  <Line_Number>
207


> <IC50>
500000

$$$$
