12953968.0
 OpenBabel09092522103D

 37 38  0  0  0  0  0  0  0  0999 V2000
    1.0873   -0.4709   -0.1566 C   0  0  0  0  0  0  0  0  0  0  0  0
    2.4484   -0.0652   -0.0599 O   0  0  0  0  0  0  0  0  0  0  0  0
    3.1371   -0.4507    1.0598 C   0  0  0  0  0  0  0  0  0  0  0  0
    2.7986   -1.5921    1.8039 C   0  0  0  0  0  0  0  0  0  0  0  0
    3.5650   -1.9926    2.9053 C   0  0  0  0  0  0  0  0  0  0  0  0
    4.6951   -1.2634    3.2899 C   0  0  0  0  0  0  0  0  0  0  0  0
    5.5062   -1.6687    4.5020 C   0  0  0  0  0  0  0  0  0  0  0  0
    6.5426   -2.6198    4.1284 N   0  0  0  0  0  0  0  0  0  0  0  0
    7.3671   -3.2031    5.0937 C   0  0  0  0  0  0  0  0  0  0  0  0
    7.4276   -2.7895    6.4320 C   0  0  0  0  0  0  0  0  0  0  0  0
    8.2825   -3.4102    7.3533 C   0  0  0  0  0  0  0  0  0  0  0  0
    9.1279   -4.4384    6.9439 C   0  0  0  0  0  0  0  0  0  0  0  0
    9.1270   -4.8188    5.5988 C   0  0  0  0  0  0  0  0  0  0  0  0
   10.0177   -5.8935    5.1521 N   0  3  0  0  0  0  0  0  0  0  0  0
   10.7118   -6.4622    6.0043 O   0  0  0  0  0  0  0  0  0  0  0  0
   10.0131   -6.1857    3.9443 O   0  5  0  0  0  0  0  0  0  0  0  0
    8.2706   -4.1938    4.6789 C   0  0  0  0  0  0  0  0  0  0  0  0
    5.0540   -0.1473    2.5248 C   0  0  0  0  0  0  0  0  0  0  0  0
    4.2786    0.2786    1.4313 C   0  0  0  0  0  0  0  0  0  0  0  0
    4.7858    1.3934    0.8122 O   0  0  0  0  0  0  0  0  0  0  0  0
    3.8466    2.2818    0.2145 C   0  0  0  0  0  0  0  0  0  0  0  0
    0.6607   -0.0011   -1.0481 H   0  0  0  0  0  0  0  0  0  0  0  0
    0.5135   -0.1294    0.7115 H   0  0  0  0  0  0  0  0  0  0  0  0
    0.9975   -1.5536   -0.2900 H   0  0  0  0  0  0  0  0  0  0  0  0
    1.9508   -2.2129    1.5327 H   0  0  0  0  0  0  0  0  0  0  0  0
    3.2706   -2.8830    3.4567 H   0  0  0  0  0  0  0  0  0  0  0  0
    4.8316   -2.1021    5.2515 H   0  0  0  0  0  0  0  0  0  0  0  0
    5.9536   -0.7700    4.9444 H   0  0  0  0  0  0  0  0  0  0  0  0
    6.2196   -3.3002    3.4432 H   0  0  0  0  0  0  0  0  0  0  0  0
    6.7937   -1.9864    6.7982 H   0  0  0  0  0  0  0  0  0  0  0  0
    8.2821   -3.0912    8.3933 H   0  0  0  0  0  0  0  0  0  0  0  0
    9.7768   -4.9200    7.6722 H   0  0  0  0  0  0  0  0  0  0  0  0
    8.2989   -4.4740    3.6270 H   0  0  0  0  0  0  0  0  0  0  0  0
    5.9464    0.4210    2.7845 H   0  0  0  0  0  0  0  0  0  0  0  0
    4.3467    3.2464    0.0796 H   0  0  0  0  0  0  0  0  0  0  0  0
    2.9741    2.4507    0.8545 H   0  0  0  0  0  0  0  0  0  0  0  0
    3.5561    1.9338   -0.7806 H   0  0  0  0  0  0  0  0  0  0  0  0
  1  2  1  0  0  0  0
  1 22  1  0  0  0  0
  1 23  1  0  0  0  0
  1 24  1  0  0  0  0
  2  3  1  0  0  0  0
  3  4  1  0  0  0  0
  3 19  2  0  0  0  0
  4  5  2  0  0  0  0
  4 25  1  0  0  0  0
  5  6  1  0  0  0  0
  5 26  1  0  0  0  0
  6  7  1  0  0  0  0
  6 18  2  0  0  0  0
  7  8  1  0  0  0  0
  7 27  1  0  0  0  0
  7 28  1  0  0  0  0
  8  9  1  0  0  0  0
  8 29  1  0  0  0  0
  9 10  1  0  0  0  0
  9 17  2  0  0  0  0
 10 11  2  0  0  0  0
 10 30  1  0  0  0  0
 11 12  1  0  0  0  0
 11 31  1  0  0  0  0
 12 13  2  0  0  0  0
 12 32  1  0  0  0  0
 13 14  1  0  0  0  0
 13 17  1  0  0  0  0
 14 15  2  0  0  0  0
 14 16  1  0  0  0  0
 17 33  1  0  0  0  0
 18 19  1  0  0  0  0
 18 34  1  0  0  0  0
 19 20  1  0  0  0  0
 20 21  1  0  0  0  0
 21 35  1  0  0  0  0
 21 36  1  0  0  0  0
 21 37  1  0  0  0  0
M  CHG  2  14   1  16  -1
M  END
>  <Line_Number>
209


> <IC50>
50400

$$$$
