52942302.0
 OpenBabel09092522103D

 37 38  0  0  0  0  0  0  0  0999 V2000
    1.0575   -0.4371   -0.0899 C   0  0  0  0  0  0  0  0  0  0  0  0
    2.4155   -0.0053   -0.1626 O   0  0  0  0  0  0  0  0  0  0  0  0
    3.0861    0.0766    1.0317 C   0  0  0  0  0  0  0  0  0  0  0  0
    2.7275   -0.6943    2.1412 C   0  0  0  0  0  0  0  0  0  0  0  0
    3.4604   -0.6389    3.3267 C   0  0  0  0  0  0  0  0  0  0  0  0
    4.6019    0.1601    3.4285 C   0  0  0  0  0  0  0  0  0  0  0  0
    5.4111    0.2474    4.7072 C   0  0  0  0  0  0  0  0  0  0  0  0
    5.4128   -1.0475    5.5372 C   0  0  0  0  0  0  0  0  0  0  0  0
    6.2253   -0.9969    6.8067 C   0  0  0  0  0  0  0  0  0  0  0  0
    5.9348   -0.0644    7.8136 C   0  0  0  0  0  0  0  0  0  0  0  0
    6.6317   -0.0864    9.0242 C   0  0  0  0  0  0  0  0  0  0  0  0
    7.6163   -1.0470    9.2301 C   0  0  0  0  0  0  0  0  0  0  0  0
    8.3124   -1.1129   10.4004 O   0  0  0  0  0  0  0  0  0  0  0  0
    7.9147   -1.9807    8.2463 C   0  0  0  0  0  0  0  0  0  0  0  0
    7.2224   -1.9547    7.0349 C   0  0  0  0  0  0  0  0  0  0  0  0
    4.9586    0.9330    2.3147 C   0  0  0  0  0  0  0  0  0  0  0  0
    4.2127    0.9113    1.1248 C   0  0  0  0  0  0  0  0  0  0  0  0
    4.7294    1.7187    0.1439 O   0  0  0  0  0  0  0  0  0  0  0  0
    3.7977    2.2908   -0.7683 C   0  0  0  0  0  0  0  0  0  0  0  0
    0.6255   -0.3478   -1.0894 H   0  0  0  0  0  0  0  0  0  0  0  0
    0.4817    0.2052    0.5838 H   0  0  0  0  0  0  0  0  0  0  0  0
    0.9805   -1.4903    0.1998 H   0  0  0  0  0  0  0  0  0  0  0  0
    1.8848   -1.3787    2.1175 H   0  0  0  0  0  0  0  0  0  0  0  0
    3.1172   -1.2501    4.1561 H   0  0  0  0  0  0  0  0  0  0  0  0
    5.0100    1.0810    5.2972 H   0  0  0  0  0  0  0  0  0  0  0  0
    6.4500    0.5024    4.4594 H   0  0  0  0  0  0  0  0  0  0  0  0
    5.7679   -1.8704    4.9026 H   0  0  0  0  0  0  0  0  0  0  0  0
    4.3944   -1.3156    5.8419 H   0  0  0  0  0  0  0  0  0  0  0  0
    5.1456    0.6704    7.6739 H   0  0  0  0  0  0  0  0  0  0  0  0
    6.3819    0.6374    9.7938 H   0  0  0  0  0  0  0  0  0  0  0  0
    8.0250   -0.3817   10.9706 H   0  0  0  0  0  0  0  0  0  0  0  0
    8.6769   -2.7340    8.4245 H   0  0  0  0  0  0  0  0  0  0  0  0
    7.4541   -2.7031    6.2810 H   0  0  0  0  0  0  0  0  0  0  0  0
    5.8342    1.5829    2.3656 H   0  0  0  0  0  0  0  0  0  0  0  0
    4.2933    3.1349   -1.2567 H   0  0  0  0  0  0  0  0  0  0  0  0
    2.9103    2.6794   -0.2580 H   0  0  0  0  0  0  0  0  0  0  0  0
    3.5330    1.5795   -1.5549 H   0  0  0  0  0  0  0  0  0  0  0  0
  1  2  1  0  0  0  0
  1 20  1  0  0  0  0
  1 21  1  0  0  0  0
  1 22  1  0  0  0  0
  2  3  1  0  0  0  0
  3  4  1  0  0  0  0
  3 17  2  0  0  0  0
  4  5  2  0  0  0  0
  4 23  1  0  0  0  0
  5  6  1  0  0  0  0
  5 24  1  0  0  0  0
  6  7  1  0  0  0  0
  6 16  2  0  0  0  0
  7  8  1  0  0  0  0
  7 25  1  0  0  0  0
  7 26  1  0  0  0  0
  8  9  1  0  0  0  0
  8 27  1  0  0  0  0
  8 28  1  0  0  0  0
  9 10  1  0  0  0  0
  9 15  2  0  0  0  0
 10 11  2  0  0  0  0
 10 29  1  0  0  0  0
 11 12  1  0  0  0  0
 11 30  1  0  0  0  0
 12 13  1  0  0  0  0
 12 14  2  0  0  0  0
 13 31  1  0  0  0  0
 14 15  1  0  0  0  0
 14 32  1  0  0  0  0
 15 33  1  0  0  0  0
 16 17  1  0  0  0  0
 16 34  1  0  0  0  0
 17 18  1  0  0  0  0
 18 19  1  0  0  0  0
 19 35  1  0  0  0  0
 19 36  1  0  0  0  0
 19 37  1  0  0  0  0
M  END
>  <Line_Number>
20


> <IC50>
204000

$$$$
