3130391.0
 OpenBabel09092522103D

 31 32  0  0  0  0  0  0  0  0999 V2000
    2.6756   -0.8313   -3.8054 O   0  0  0  0  0  0  0  0  0  0  0  0
    3.7593   -0.9717   -3.2222 N   0  3  0  0  0  0  0  0  0  0  0  0
    4.8471   -0.5641   -3.6540 O   0  5  0  0  0  0  0  0  0  0  0  0
    3.7533   -1.6663   -1.9276 C   0  0  0  0  0  0  0  0  0  0  0  0
    2.5401   -2.1077   -1.3856 C   0  0  0  0  0  0  0  0  0  0  0  0
    2.5404   -2.7617   -0.1532 C   0  0  0  0  0  0  0  0  0  0  0  0
    3.7425   -2.9841    0.5283 C   0  0  0  0  0  0  0  0  0  0  0  0
    4.9669   -2.5555   -0.0126 C   0  0  0  0  0  0  0  0  0  0  0  0
    6.2715   -2.8050    0.7171 C   0  0  0  0  0  0  0  0  0  0  0  0
    7.1440   -3.6223   -0.1142 N   0  0  0  0  0  0  0  0  0  0  0  0
    8.4040   -4.0328    0.3172 C   0  0  0  0  0  0  0  0  0  0  0  0
    8.9965   -3.6266    1.5198 C   0  0  0  0  0  0  0  0  0  0  0  0
   10.2881   -4.0401    1.8760 C   0  0  0  0  0  0  0  0  0  0  0  0
   11.0313   -4.8435    1.0151 C   0  0  0  0  0  0  0  0  0  0  0  0
   10.4713   -5.2210   -0.2078 C   0  0  0  0  0  0  0  0  0  0  0  0
   11.2443   -6.0561   -1.1346 N   0  3  0  0  0  0  0  0  0  0  0  0
   12.3772   -6.4139   -0.7808 O   0  0  0  0  0  0  0  0  0  0  0  0
   10.7172   -6.3634   -2.2133 O   0  5  0  0  0  0  0  0  0  0  0  0
    9.1750   -4.8132   -0.5581 C   0  0  0  0  0  0  0  0  0  0  0  0
    4.9610   -1.8824   -1.2466 C   0  0  0  0  0  0  0  0  0  0  0  0
    1.5965   -1.9502   -1.9047 H   0  0  0  0  0  0  0  0  0  0  0  0
    1.6019   -3.1014    0.2780 H   0  0  0  0  0  0  0  0  0  0  0  0
    3.7130   -3.4954    1.4881 H   0  0  0  0  0  0  0  0  0  0  0  0
    6.0765   -3.3029    1.6736 H   0  0  0  0  0  0  0  0  0  0  0  0
    6.7373   -1.8335    0.9262 H   0  0  0  0  0  0  0  0  0  0  0  0
    6.6481   -4.3597   -0.6121 H   0  0  0  0  0  0  0  0  0  0  0  0
    8.4606   -2.9923    2.2202 H   0  0  0  0  0  0  0  0  0  0  0  0
   10.7126   -3.7291    2.8284 H   0  0  0  0  0  0  0  0  0  0  0  0
   12.0335   -5.1543    1.3033 H   0  0  0  0  0  0  0  0  0  0  0  0
    8.7583   -5.0885   -1.5254 H   0  0  0  0  0  0  0  0  0  0  0  0
    5.9070   -1.5395   -1.6669 H   0  0  0  0  0  0  0  0  0  0  0  0
  1  2  2  0  0  0  0
  2  3  1  0  0  0  0
  2  4  1  0  0  0  0
  4  5  1  0  0  0  0
  4 20  2  0  0  0  0
  5  6  2  0  0  0  0
  5 21  1  0  0  0  0
  6  7  1  0  0  0  0
  6 22  1  0  0  0  0
  7  8  2  0  0  0  0
  7 23  1  0  0  0  0
  8  9  1  0  0  0  0
  8 20  1  0  0  0  0
  9 10  1  0  0  0  0
  9 24  1  0  0  0  0
  9 25  1  0  0  0  0
 10 11  1  0  0  0  0
 10 26  1  0  0  0  0
 11 12  1  0  0  0  0
 11 19  2  0  0  0  0
 12 13  2  0  0  0  0
 12 27  1  0  0  0  0
 13 14  1  0  0  0  0
 13 28  1  0  0  0  0
 14 15  2  0  0  0  0
 14 29  1  0  0  0  0
 15 16  1  0  0  0  0
 15 19  1  0  0  0  0
 16 17  2  0  0  0  0
 16 18  1  0  0  0  0
 19 30  1  0  0  0  0
 20 31  1  0  0  0  0
M  CHG  4   2   1   3  -1  16   1  18  -1
M  END
>  <Line_Number>
211


> <IC50>
85000

$$$$
