964801.0
 OpenBabel09092522103D

 30 32  0  0  0  0  0  0  0  0999 V2000
    1.3271   -3.0250    4.3486 Cl  0  0  0  0  0  0  0  0  0  0  0  0
    2.0741   -2.1424    3.0761 C   0  0  0  0  0  0  0  0  0  0  0  0
    2.9501   -1.1039    3.3722 C   0  0  0  0  0  0  0  0  0  0  0  0
    3.5440   -0.3741    2.3343 C   0  0  0  0  0  0  0  0  0  0  0  0
    3.2935   -0.6811    0.9921 C   0  0  0  0  0  0  0  0  0  0  0  0
    3.7757    0.0586   -0.0745 N   0  0  0  0  0  0  0  0  0  0  0  0
    4.6348    1.2239    0.0431 C   0  0  0  0  0  0  0  0  0  0  0  0
    6.1182    0.9212    0.0983 C   0  0  0  0  0  0  0  0  0  0  0  0
    6.6587   -0.3806   -0.0246 C   0  0  0  0  0  0  0  0  0  0  0  0
    8.0420   -0.6003    0.0098 C   0  0  0  0  0  0  0  0  0  0  0  0
    8.8639    0.4923    0.1698 C   0  0  0  0  0  0  0  0  0  0  0  0
    8.3565    1.7622    0.2890 C   0  0  0  0  0  0  0  0  0  0  0  0
    7.0002    2.0090    0.2537 C   0  0  0  0  0  0  0  0  0  0  0  0
    9.3298    2.6999    0.4391 O   0  0  0  0  0  0  0  0  0  0  0  0
   10.5082    1.8673    0.4369 C   0  0  0  0  0  0  0  0  0  0  0  0
   10.2219    0.4683    0.2302 O   0  0  0  0  0  0  0  0  0  0  0  0
    2.3970   -1.7288    0.7232 C   0  0  0  0  0  0  0  0  0  0  0  0
    1.7936   -2.4585    1.7531 C   0  0  0  0  0  0  0  0  0  0  0  0
    3.1713   -0.8462    4.4038 H   0  0  0  0  0  0  0  0  0  0  0  0
    4.2179    0.4327    2.6071 H   0  0  0  0  0  0  0  0  0  0  0  0
    3.8507   -0.4368   -0.9557 H   0  0  0  0  0  0  0  0  0  0  0  0
    4.3465    1.8426    0.9011 H   0  0  0  0  0  0  0  0  0  0  0  0
    4.4620    1.8398   -0.8482 H   0  0  0  0  0  0  0  0  0  0  0  0
    6.0040   -1.2415   -0.1414 H   0  0  0  0  0  0  0  0  0  0  0  0
    8.4535   -1.5992   -0.0827 H   0  0  0  0  0  0  0  0  0  0  0  0
    6.6331    3.0266    0.3451 H   0  0  0  0  0  0  0  0  0  0  0  0
   11.0181    1.9814    1.4007 H   0  0  0  0  0  0  0  0  0  0  0  0
   11.1795    2.2108   -0.3584 H   0  0  0  0  0  0  0  0  0  0  0  0
    2.1427   -1.9727   -0.3048 H   0  0  0  0  0  0  0  0  0  0  0  0
    1.0994   -3.2585    1.5106 H   0  0  0  0  0  0  0  0  0  0  0  0
  1  2  1  0  0  0  0
  2  3  1  0  0  0  0
  2 18  2  0  0  0  0
  3  4  2  0  0  0  0
  3 19  1  0  0  0  0
  4  5  1  0  0  0  0
  4 20  1  0  0  0  0
  5  6  1  0  0  0  0
  5 17  2  0  0  0  0
  6  7  1  0  0  0  0
  6 21  1  0  0  0  0
  7  8  1  0  0  0  0
  7 22  1  0  0  0  0
  7 23  1  0  0  0  0
  8  9  1  0  0  0  0
  8 13  2  0  0  0  0
  9 10  2  0  0  0  0
  9 24  1  0  0  0  0
 10 11  1  0  0  0  0
 10 25  1  0  0  0  0
 11 12  2  0  0  0  0
 11 16  1  0  0  0  0
 12 13  1  0  0  0  0
 12 14  1  0  0  0  0
 13 26  1  0  0  0  0
 14 15  1  0  0  0  0
 15 16  1  0  0  0  0
 15 27  1  0  0  0  0
 15 28  1  0  0  0  0
 17 18  1  0  0  0  0
 17 29  1  0  0  0  0
 18 30  1  0  0  0  0
M  END
>  <Line_Number>
217


> <IC50>
500000

$$$$
