1133085.0
 OpenBabel09092522103D

 29 30  0  0  0  0  0  0  0  0999 V2000
    0.3259   -0.2659    4.0704 O   0  0  0  0  0  0  0  0  0  0  0  0
    1.4496    0.2084    4.2967 N   0  3  0  0  0  0  0  0  0  0  0  0
    1.7166    0.9546    5.2494 O   0  5  0  0  0  0  0  0  0  0  0  0
    2.5348   -0.1294    3.3678 C   0  0  0  0  0  0  0  0  0  0  0  0
    2.2851   -0.9906    2.2923 C   0  0  0  0  0  0  0  0  0  0  0  0
    3.3226   -1.3093    1.4159 C   0  0  0  0  0  0  0  0  0  0  0  0
    4.5947   -0.7586    1.6045 C   0  0  0  0  0  0  0  0  0  0  0  0
    4.8456    0.1290    2.6623 C   0  0  0  0  0  0  0  0  0  0  0  0
    6.2079    0.7634    2.8351 C   0  0  0  0  0  0  0  0  0  0  0  0
    7.0567   -0.0865    3.6511 N   0  0  0  0  0  0  0  0  0  0  0  0
    8.3269    0.3418    4.0478 C   0  0  0  0  0  0  0  0  0  0  0  0
    8.9411    1.5119    3.5797 C   0  0  0  0  0  0  0  0  0  0  0  0
   10.2458    1.8520    3.9568 C   0  0  0  0  0  0  0  0  0  0  0  0
   10.9765    1.0054    4.7850 C   0  0  0  0  0  0  0  0  0  0  0  0
   10.3964   -0.1780    5.2281 C   0  0  0  0  0  0  0  0  0  0  0  0
   11.3062   -1.2538    6.2171 Cl  0  0  0  0  0  0  0  0  0  0  0  0
    9.0891   -0.5085    4.8621 C   0  0  0  0  0  0  0  0  0  0  0  0
    3.8080    0.4246    3.5616 C   0  0  0  0  0  0  0  0  0  0  0  0
    1.2985   -1.4188    2.1257 H   0  0  0  0  0  0  0  0  0  0  0  0
    3.1410   -1.9831    0.5813 H   0  0  0  0  0  0  0  0  0  0  0  0
    5.3936   -1.0201    0.9111 H   0  0  0  0  0  0  0  0  0  0  0  0
    6.0822    1.7534    3.2905 H   0  0  0  0  0  0  0  0  0  0  0  0
    6.6582    0.9123    1.8455 H   0  0  0  0  0  0  0  0  0  0  0  0
    6.5637   -0.5800    4.3910 H   0  0  0  0  0  0  0  0  0  0  0  0
    8.4161    2.1954    2.9191 H   0  0  0  0  0  0  0  0  0  0  0  0
   10.6913    2.7757    3.5955 H   0  0  0  0  0  0  0  0  0  0  0  0
   11.9927    1.2644    5.0676 H   0  0  0  0  0  0  0  0  0  0  0  0
    8.6659   -1.4516    5.2004 H   0  0  0  0  0  0  0  0  0  0  0  0
    4.0008    1.0954    4.3974 H   0  0  0  0  0  0  0  0  0  0  0  0
  1  2  2  0  0  0  0
  2  3  1  0  0  0  0
  2  4  1  0  0  0  0
  4  5  1  0  0  0  0
  4 18  2  0  0  0  0
  5  6  2  0  0  0  0
  5 19  1  0  0  0  0
  6  7  1  0  0  0  0
  6 20  1  0  0  0  0
  7  8  2  0  0  0  0
  7 21  1  0  0  0  0
  8  9  1  0  0  0  0
  8 18  1  0  0  0  0
  9 10  1  0  0  0  0
  9 22  1  0  0  0  0
  9 23  1  0  0  0  0
 10 11  1  0  0  0  0
 10 24  1  0  0  0  0
 11 12  1  0  0  0  0
 11 17  2  0  0  0  0
 12 13  2  0  0  0  0
 12 25  1  0  0  0  0
 13 14  1  0  0  0  0
 13 26  1  0  0  0  0
 14 15  2  0  0  0  0
 14 27  1  0  0  0  0
 15 16  1  0  0  0  0
 15 17  1  0  0  0  0
 17 28  1  0  0  0  0
 18 29  1  0  0  0  0
M  CHG  2   2   1   3  -1
M  END
>  <Line_Number>
219


> <IC50>
410300

$$$$
