49844401.0
 OpenBabel09092522103D

 31 32  0  0  0  0  0  0  0  0999 V2000
    2.0848    1.3641    0.3671 O   0  0  0  0  0  0  0  0  0  0  0  0
    1.0105    0.5268    0.2763 C   0  0  0  0  0  0  0  0  0  0  0  0
    0.0416    0.5077    1.2713 C   0  0  0  0  0  0  0  0  0  0  0  0
   -1.0500   -0.3628    1.1612 C   0  0  0  0  0  0  0  0  0  0  0  0
   -1.2091   -1.2207    0.0520 C   0  0  0  0  0  0  0  0  0  0  0  0
   -2.4271   -2.1225    0.0137 C   0  0  0  0  0  0  0  0  0  0  0  0
   -3.7549   -1.3435    0.0043 C   0  0  0  0  0  0  0  0  0  0  0  0
   -5.0365   -2.1521    0.0266 C   0  0  0  0  0  0  0  0  0  0  0  0
   -6.2543   -1.4477    0.0365 C   0  0  0  0  0  0  0  0  0  0  0  0
   -7.4788   -2.1188    0.0650 C   0  0  0  0  0  0  0  0  0  0  0  0
   -7.5079   -3.5105    0.0830 C   0  0  0  0  0  0  0  0  0  0  0  0
   -6.3103   -4.2207    0.0747 C   0  0  0  0  0  0  0  0  0  0  0  0
   -6.3434   -5.9424    0.1006 Cl  0  0  0  0  0  0  0  0  0  0  0  0
   -5.0819   -3.5530    0.0492 C   0  0  0  0  0  0  0  0  0  0  0  0
   -0.2100   -1.1926   -0.9306 C   0  0  0  0  0  0  0  0  0  0  0  0
   -0.2045   -1.9854   -2.0506 O   0  0  0  0  0  0  0  0  0  0  0  0
    0.8848   -0.3224   -0.8168 C   0  0  0  0  0  0  0  0  0  0  0  0
    1.8414   -0.3303   -1.7991 O   0  0  0  0  0  0  0  0  0  0  0  0
    2.0210    1.8771    1.1854 H   0  0  0  0  0  0  0  0  0  0  0  0
    0.1156    1.1560    2.1391 H   0  0  0  0  0  0  0  0  0  0  0  0
   -1.7858   -0.3641    1.9641 H   0  0  0  0  0  0  0  0  0  0  0  0
   -2.3784   -2.7812    0.8907 H   0  0  0  0  0  0  0  0  0  0  0  0
   -2.4060   -2.7821   -0.8580 H   0  0  0  0  0  0  0  0  0  0  0  0
   -3.7755   -0.7042   -0.8884 H   0  0  0  0  0  0  0  0  0  0  0  0
   -3.7908   -0.6760    0.8745 H   0  0  0  0  0  0  0  0  0  0  0  0
   -6.2532   -0.3583    0.0252 H   0  0  0  0  0  0  0  0  0  0  0  0
   -8.4081   -1.5544    0.0743 H   0  0  0  0  0  0  0  0  0  0  0  0
   -8.4606   -4.0323    0.1045 H   0  0  0  0  0  0  0  0  0  0  0  0
   -4.1721   -4.1458    0.0503 H   0  0  0  0  0  0  0  0  0  0  0  0
   -0.8631   -2.6890   -1.9575 H   0  0  0  0  0  0  0  0  0  0  0  0
    1.5283   -0.9967   -2.4397 H   0  0  0  0  0  0  0  0  0  0  0  0
  1  2  1  0  0  0  0
  1 19  1  0  0  0  0
  2  3  1  0  0  0  0
  2 17  2  0  0  0  0
  3  4  2  0  0  0  0
  3 20  1  0  0  0  0
  4  5  1  0  0  0  0
  4 21  1  0  0  0  0
  5  6  1  0  0  0  0
  5 15  2  0  0  0  0
  6  7  1  0  0  0  0
  6 22  1  0  0  0  0
  6 23  1  0  0  0  0
  7  8  1  0  0  0  0
  7 24  1  0  0  0  0
  7 25  1  0  0  0  0
  8  9  1  0  0  0  0
  8 14  2  0  0  0  0
  9 10  2  0  0  0  0
  9 26  1  0  0  0  0
 10 11  1  0  0  0  0
 10 27  1  0  0  0  0
 11 12  2  0  0  0  0
 11 28  1  0  0  0  0
 12 13  1  0  0  0  0
 12 14  1  0  0  0  0
 14 29  1  0  0  0  0
 15 16  1  0  0  0  0
 15 17  1  0  0  0  0
 16 30  1  0  0  0  0
 17 18  1  0  0  0  0
 18 31  1  0  0  0  0
M  END
>  <Line_Number>
21


> <IC50>
50000

$$$$
