4367631.0
 OpenBabel09092522103D

 35 36  0  0  0  0  0  0  0  0999 V2000
    1.0430    0.3928    0.1221 C   0  0  0  0  0  0  0  0  0  0  0  0
    2.3979   -0.0426    0.1112 O   0  0  0  0  0  0  0  0  0  0  0  0
    3.0610    0.0260   -1.0856 C   0  0  0  0  0  0  0  0  0  0  0  0
    2.7137    0.9390   -2.0926 C   0  0  0  0  0  0  0  0  0  0  0  0
    3.4460    1.0121   -3.2823 C   0  0  0  0  0  0  0  0  0  0  0  0
    4.5473    0.1777   -3.4919 C   0  0  0  0  0  0  0  0  0  0  0  0
    5.3113    0.2192   -4.7937 C   0  0  0  0  0  0  0  0  0  0  0  0
    6.3992    1.1817   -4.7197 N   0  0  0  0  0  0  0  0  0  0  0  0
    7.1687    1.4607   -5.8533 C   0  0  0  0  0  0  0  0  0  0  0  0
    7.1419    0.6880   -7.0221 C   0  0  0  0  0  0  0  0  0  0  0  0
    7.9810    0.9770   -8.1054 C   0  0  0  0  0  0  0  0  0  0  0  0
    8.8884    2.0254   -8.0185 C   0  0  0  0  0  0  0  0  0  0  0  0
    9.9199    2.3799   -9.3482 Cl  0  0  0  0  0  0  0  0  0  0  0  0
    8.9709    2.7800   -6.8536 C   0  0  0  0  0  0  0  0  0  0  0  0
    8.1217    2.4884   -5.7781 C   0  0  0  0  0  0  0  0  0  0  0  0
    4.9235   -0.7012   -2.4668 C   0  0  0  0  0  0  0  0  0  0  0  0
    4.1813   -0.7994   -1.2791 C   0  0  0  0  0  0  0  0  0  0  0  0
    4.6923   -1.7184   -0.3968 O   0  0  0  0  0  0  0  0  0  0  0  0
    3.7541   -2.4052    0.4225 C   0  0  0  0  0  0  0  0  0  0  0  0
    0.6167    0.1296    1.0950 H   0  0  0  0  0  0  0  0  0  0  0  0
    0.4558   -0.1168   -0.6494 H   0  0  0  0  0  0  0  0  0  0  0  0
    0.9737    1.4801    0.0197 H   0  0  0  0  0  0  0  0  0  0  0  0
    1.8835    1.6268   -1.9722 H   0  0  0  0  0  0  0  0  0  0  0  0
    3.1481    1.7297   -4.0448 H   0  0  0  0  0  0  0  0  0  0  0  0
    4.6171    0.4769   -5.6036 H   0  0  0  0  0  0  0  0  0  0  0  0
    5.7033   -0.7827   -5.0043 H   0  0  0  0  0  0  0  0  0  0  0  0
    6.1703    2.0154   -4.1848 H   0  0  0  0  0  0  0  0  0  0  0  0
    6.4635   -0.1534   -7.1239 H   0  0  0  0  0  0  0  0  0  0  0  0
    7.9222    0.3716   -9.0066 H   0  0  0  0  0  0  0  0  0  0  0  0
    9.6970    3.5824   -6.7654 H   0  0  0  0  0  0  0  0  0  0  0  0
    8.2191    3.0718   -4.8657 H   0  0  0  0  0  0  0  0  0  0  0  0
    5.7978   -1.3373   -2.5952 H   0  0  0  0  0  0  0  0  0  0  0  0
    4.2354   -3.3233    0.7755 H   0  0  0  0  0  0  0  0  0  0  0  0
    2.8561   -2.6990   -0.1326 H   0  0  0  0  0  0  0  0  0  0  0  0
    3.5044   -1.8150    1.3085 H   0  0  0  0  0  0  0  0  0  0  0  0
  1  2  1  0  0  0  0
  1 20  1  0  0  0  0
  1 21  1  0  0  0  0
  1 22  1  0  0  0  0
  2  3  1  0  0  0  0
  3  4  1  0  0  0  0
  3 17  2  0  0  0  0
  4  5  2  0  0  0  0
  4 23  1  0  0  0  0
  5  6  1  0  0  0  0
  5 24  1  0  0  0  0
  6  7  1  0  0  0  0
  6 16  2  0  0  0  0
  7  8  1  0  0  0  0
  7 25  1  0  0  0  0
  7 26  1  0  0  0  0
  8  9  1  0  0  0  0
  8 27  1  0  0  0  0
  9 10  1  0  0  0  0
  9 15  2  0  0  0  0
 10 11  2  0  0  0  0
 10 28  1  0  0  0  0
 11 12  1  0  0  0  0
 11 29  1  0  0  0  0
 12 13  1  0  0  0  0
 12 14  2  0  0  0  0
 14 15  1  0  0  0  0
 14 30  1  0  0  0  0
 15 31  1  0  0  0  0
 16 17  1  0  0  0  0
 16 32  1  0  0  0  0
 17 18  1  0  0  0  0
 18 19  1  0  0  0  0
 19 33  1  0  0  0  0
 19 34  1  0  0  0  0
 19 35  1  0  0  0  0
M  END
>  <Line_Number>
220


> <IC50>
500000

$$$$
