12095765.0
 OpenBabel09092522103D

 29 30  0  0  0  0  0  0  0  0999 V2000
    4.3819    1.5315   -1.0716 O   0  0  0  0  0  0  0  0  0  0  0  0
    3.5648    0.7657   -0.5454 N   0  3  0  0  0  0  0  0  0  0  0  0
    2.7771    1.0603    0.3597 O   0  5  0  0  0  0  0  0  0  0  0  0
    3.5236   -0.6004   -1.0507 C   0  0  0  0  0  0  0  0  0  0  0  0
    3.2325   -0.7606   -2.4131 C   0  0  0  0  0  0  0  0  0  0  0  0
    3.2329   -2.0381   -2.9635 C   0  0  0  0  0  0  0  0  0  0  0  0
    3.5221   -3.1388   -2.1569 C   0  0  0  0  0  0  0  0  0  0  0  0
    3.7977   -2.9697   -0.7939 C   0  0  0  0  0  0  0  0  0  0  0  0
    3.8058   -1.6907   -0.2062 C   0  0  0  0  0  0  0  0  0  0  0  0
    4.1554   -1.5458    1.2620 C   0  0  0  0  0  0  0  0  0  0  0  0
    2.9821   -1.1684    2.0342 N   0  0  0  0  0  0  0  0  0  0  0  0
    3.0972   -0.9601    3.4191 C   0  0  0  0  0  0  0  0  0  0  0  0
    4.3049   -0.7673    4.0977 C   0  0  0  0  0  0  0  0  0  0  0  0
    4.3201   -0.4626    5.4656 C   0  0  0  0  0  0  0  0  0  0  0  0
    3.1230   -0.3532    6.1682 C   0  0  0  0  0  0  0  0  0  0  0  0
    3.1449    0.0421    7.8422 Cl  0  0  0  0  0  0  0  0  0  0  0  0
    1.9114   -0.5483    5.5172 C   0  0  0  0  0  0  0  0  0  0  0  0
    1.9043   -0.8393    4.1499 C   0  0  0  0  0  0  0  0  0  0  0  0
    3.0147    0.0994   -3.0432 H   0  0  0  0  0  0  0  0  0  0  0  0
    3.0152   -2.1793   -4.0197 H   0  0  0  0  0  0  0  0  0  0  0  0
    3.5367   -4.1362   -2.5925 H   0  0  0  0  0  0  0  0  0  0  0  0
    4.0191   -3.8528   -0.1948 H   0  0  0  0  0  0  0  0  0  0  0  0
    4.9678   -0.8144    1.3527 H   0  0  0  0  0  0  0  0  0  0  0  0
    4.5378   -2.5030    1.6406 H   0  0  0  0  0  0  0  0  0  0  0  0
    2.5479   -0.3180    1.6498 H   0  0  0  0  0  0  0  0  0  0  0  0
    5.2595   -0.8186    3.5826 H   0  0  0  0  0  0  0  0  0  0  0  0
    5.2684   -0.2972    5.9685 H   0  0  0  0  0  0  0  0  0  0  0  0
    0.9721   -0.4641    6.0548 H   0  0  0  0  0  0  0  0  0  0  0  0
    0.9511   -0.9761    3.6423 H   0  0  0  0  0  0  0  0  0  0  0  0
  1  2  2  0  0  0  0
  2  3  1  0  0  0  0
  2  4  1  0  0  0  0
  4  5  1  0  0  0  0
  4  9  2  0  0  0  0
  5  6  2  0  0  0  0
  5 19  1  0  0  0  0
  6  7  1  0  0  0  0
  6 20  1  0  0  0  0
  7  8  2  0  0  0  0
  7 21  1  0  0  0  0
  8  9  1  0  0  0  0
  8 22  1  0  0  0  0
  9 10  1  0  0  0  0
 10 11  1  0  0  0  0
 10 23  1  0  0  0  0
 10 24  1  0  0  0  0
 11 12  1  0  0  0  0
 11 25  1  0  0  0  0
 12 13  1  0  0  0  0
 12 18  2  0  0  0  0
 13 14  2  0  0  0  0
 13 26  1  0  0  0  0
 14 15  1  0  0  0  0
 14 27  1  0  0  0  0
 15 16  1  0  0  0  0
 15 17  2  0  0  0  0
 17 18  1  0  0  0  0
 17 28  1  0  0  0  0
 18 29  1  0  0  0  0
M  CHG  2   2   1   3  -1
M  END
>  <Line_Number>
221


> <IC50>
238700

$$$$
