9274128.0
 OpenBabel09092522103D

 31 32  0  0  0  0  0  0  0  0999 V2000
    1.6779   -0.7537   -0.0761 O   0  0  0  0  0  0  0  0  0  0  0  0
    2.7043   -0.1383    0.2444 N   0  3  0  0  0  0  0  0  0  0  0  0
    3.3372   -0.3259    1.2941 O   0  5  0  0  0  0  0  0  0  0  0  0
    3.2149    0.8735   -0.6899 C   0  0  0  0  0  0  0  0  0  0  0  0
    2.5411    1.1079   -1.8959 C   0  0  0  0  0  0  0  0  0  0  0  0
    3.0600    2.0323   -2.8074 C   0  0  0  0  0  0  0  0  0  0  0  0
    4.2535    2.7169   -2.5290 C   0  0  0  0  0  0  0  0  0  0  0  0
    4.8775    3.6249   -3.5653 C   0  0  0  0  0  0  0  0  0  0  0  0
    4.4162    4.9987   -3.4189 N   0  0  0  0  0  0  0  0  0  0  0  0
    4.8431    5.9615   -4.3452 C   0  0  0  0  0  0  0  0  0  0  0  0
    5.8993    5.7527   -5.2451 C   0  0  0  0  0  0  0  0  0  0  0  0
    6.3430    6.7585   -6.1107 C   0  0  0  0  0  0  0  0  0  0  0  0
    5.7568    8.0176   -6.0731 C   0  0  0  0  0  0  0  0  0  0  0  0
    4.7321    8.2601   -5.1530 C   0  0  0  0  0  0  0  0  0  0  0  0
    4.1249    9.5940   -5.0912 N   0  3  0  0  0  0  0  0  0  0  0  0
    4.5353   10.4523   -5.8864 O   0  0  0  0  0  0  0  0  0  0  0  0
    3.2383    9.7887   -4.2478 O   0  5  0  0  0  0  0  0  0  0  0  0
    4.2845    7.2456   -4.2868 C   0  0  0  0  0  0  0  0  0  0  0  0
    4.8917    2.5049   -1.2957 C   0  0  0  0  0  0  0  0  0  0  0  0
    4.3825    1.5804   -0.3792 C   0  0  0  0  0  0  0  0  0  0  0  0
    1.6291    0.5695   -2.1468 H   0  0  0  0  0  0  0  0  0  0  0  0
    2.5427    2.1929   -3.7521 H   0  0  0  0  0  0  0  0  0  0  0  0
    4.6379    3.2374   -4.5641 H   0  0  0  0  0  0  0  0  0  0  0  0
    5.9673    3.5768   -3.4472 H   0  0  0  0  0  0  0  0  0  0  0  0
    3.4232    5.0719   -3.2059 H   0  0  0  0  0  0  0  0  0  0  0  0
    6.4045    4.7922   -5.3063 H   0  0  0  0  0  0  0  0  0  0  0  0
    7.1520    6.5539   -6.8082 H   0  0  0  0  0  0  0  0  0  0  0  0
    6.1140    8.7926   -6.7479 H   0  0  0  0  0  0  0  0  0  0  0  0
    3.5076    7.4566   -3.5555 H   0  0  0  0  0  0  0  0  0  0  0  0
    5.8077    3.0429   -1.0553 H   0  0  0  0  0  0  0  0  0  0  0  0
    4.9133    1.4132    0.5560 H   0  0  0  0  0  0  0  0  0  0  0  0
  1  2  2  0  0  0  0
  2  3  1  0  0  0  0
  2  4  1  0  0  0  0
  4  5  1  0  0  0  0
  4 20  2  0  0  0  0
  5  6  2  0  0  0  0
  5 21  1  0  0  0  0
  6  7  1  0  0  0  0
  6 22  1  0  0  0  0
  7  8  1  0  0  0  0
  7 19  2  0  0  0  0
  8  9  1  0  0  0  0
  8 23  1  0  0  0  0
  8 24  1  0  0  0  0
  9 10  1  0  0  0  0
  9 25  1  0  0  0  0
 10 11  1  0  0  0  0
 10 18  2  0  0  0  0
 11 12  2  0  0  0  0
 11 26  1  0  0  0  0
 12 13  1  0  0  0  0
 12 27  1  0  0  0  0
 13 14  2  0  0  0  0
 13 28  1  0  0  0  0
 14 15  1  0  0  0  0
 14 18  1  0  0  0  0
 15 16  2  0  0  0  0
 15 17  1  0  0  0  0
 18 29  1  0  0  0  0
 19 20  1  0  0  0  0
 19 30  1  0  0  0  0
 20 31  1  0  0  0  0
M  CHG  4   2   1   3  -1  15   1  17  -1
M  END
>  <Line_Number>
223


> <IC50>
64900

$$$$
