682326.0
 OpenBabel09092522103D

 32 34  0  0  0  0  0  0  0  0999 V2000
    0.7675    0.3912    0.4120 O   0  0  0  0  0  0  0  0  0  0  0  0
    1.9545    0.5539    0.0963 N   0  3  0  0  0  0  0  0  0  0  0  0
    2.4939    0.0375   -0.8947 O   0  5  0  0  0  0  0  0  0  0  0  0
    2.7824    1.4034    0.9590 C   0  0  0  0  0  0  0  0  0  0  0  0
    2.2089    1.9949    2.0896 C   0  0  0  0  0  0  0  0  0  0  0  0
    3.0005    2.7943    2.9049 C   0  0  0  0  0  0  0  0  0  0  0  0
    4.3530    2.9795    2.6020 C   0  0  0  0  0  0  0  0  0  0  0  0
    4.9582    2.3561    1.4981 C   0  0  0  0  0  0  0  0  0  0  0  0
    6.3015    2.5670    1.1449 N   0  0  0  0  0  0  0  0  0  0  0  0
    7.2401    2.8373    2.2300 C   0  0  0  0  0  0  0  0  0  0  0  0
    8.6485    3.0165    1.7126 C   0  0  0  0  0  0  0  0  0  0  0  0
    8.9491    4.0430    0.7857 C   0  0  0  0  0  0  0  0  0  0  0  0
   10.2697    4.3096    0.4078 C   0  0  0  0  0  0  0  0  0  0  0  0
   11.2651    3.5459    0.9767 C   0  0  0  0  0  0  0  0  0  0  0  0
   10.9820    2.5330    1.8613 C   0  0  0  0  0  0  0  0  0  0  0  0
    9.6905    2.2355    2.2404 C   0  0  0  0  0  0  0  0  0  0  0  0
   12.1028    1.9140    2.3201 O   0  0  0  0  0  0  0  0  0  0  0  0
   13.1255    2.7152    1.6933 C   0  0  0  0  0  0  0  0  0  0  0  0
   12.6015    3.6946    0.7725 O   0  0  0  0  0  0  0  0  0  0  0  0
    4.1388    1.6003    0.6492 C   0  0  0  0  0  0  0  0  0  0  0  0
    1.1598    1.8532    2.3390 H   0  0  0  0  0  0  0  0  0  0  0  0
    2.5712    3.2822    3.7771 H   0  0  0  0  0  0  0  0  0  0  0  0
    4.9206    3.6364    3.2550 H   0  0  0  0  0  0  0  0  0  0  0  0
    6.6553    1.8481    0.5160 H   0  0  0  0  0  0  0  0  0  0  0  0
    7.2128    2.0134    2.9543 H   0  0  0  0  0  0  0  0  0  0  0  0
    6.9830    3.7617    2.7603 H   0  0  0  0  0  0  0  0  0  0  0  0
    8.1439    4.6537    0.3778 H   0  0  0  0  0  0  0  0  0  0  0  0
   10.5059    5.1072   -0.2879 H   0  0  0  0  0  0  0  0  0  0  0  0
    9.5042    1.4431    2.9573 H   0  0  0  0  0  0  0  0  0  0  0  0
   13.8115    2.0535    1.1533 H   0  0  0  0  0  0  0  0  0  0  0  0
   13.6863    3.2373    2.4783 H   0  0  0  0  0  0  0  0  0  0  0  0
    4.5654    1.1555   -0.2479 H   0  0  0  0  0  0  0  0  0  0  0  0
  1  2  2  0  0  0  0
  2  3  1  0  0  0  0
  2  4  1  0  0  0  0
  4  5  1  0  0  0  0
  4 20  2  0  0  0  0
  5  6  2  0  0  0  0
  5 21  1  0  0  0  0
  6  7  1  0  0  0  0
  6 22  1  0  0  0  0
  7  8  2  0  0  0  0
  7 23  1  0  0  0  0
  8  9  1  0  0  0  0
  8 20  1  0  0  0  0
  9 10  1  0  0  0  0
  9 24  1  0  0  0  0
 10 11  1  0  0  0  0
 10 25  1  0  0  0  0
 10 26  1  0  0  0  0
 11 12  1  0  0  0  0
 11 16  2  0  0  0  0
 12 13  2  0  0  0  0
 12 27  1  0  0  0  0
 13 14  1  0  0  0  0
 13 28  1  0  0  0  0
 14 15  2  0  0  0  0
 14 19  1  0  0  0  0
 15 16  1  0  0  0  0
 15 17  1  0  0  0  0
 16 29  1  0  0  0  0
 17 18  1  0  0  0  0
 18 19  1  0  0  0  0
 18 30  1  0  0  0  0
 18 31  1  0  0  0  0
 20 32  1  0  0  0  0
M  CHG  2   2   1   3  -1
M  END
>  <Line_Number>
224


> <IC50>
36700

$$$$
