5029.0
 OpenBabel09092522103D

 46 48  0  0  0  0  0  0  0  0999 V2000
   10.4015   -1.0082    0.0494 C   0  0  0  0  0  0  0  0  0  0  0  0
    9.3096   -0.1027    0.1264 O   0  0  0  0  0  0  0  0  0  0  0  0
    8.0629   -0.7096   -0.2191 C   0  0  0  0  0  0  0  0  0  0  0  0
    6.9809    0.3751   -0.2466 C   0  0  0  0  0  0  0  0  0  0  0  0
    7.3497    1.4406   -1.2763 C   0  0  0  0  0  0  0  0  0  0  0  0
    6.4556    2.5662   -1.2629 O   0  0  0  0  0  0  0  0  0  0  0  0
    7.0234    3.7167   -1.7853 C   0  0  0  0  0  0  0  0  0  0  0  0
    8.0950    3.6832   -2.6803 C   0  0  0  0  0  0  0  0  0  0  0  0
    8.6765    4.8677   -3.0582 C   0  0  0  0  0  0  0  0  0  0  0  0
    8.2611    6.0683   -2.6235 N   0  0  0  0  0  0  0  0  0  0  0  0
    7.1915    6.1175   -1.7812 C   0  0  0  0  0  0  0  0  0  0  0  0
    6.7877    7.5174   -1.4010 C   0  0  0  0  0  0  0  0  0  0  0  0
    8.1402    8.4902   -0.6503 S   0  0  3  0  0  0  0  0  0  0  0  0
    8.6007    7.9084    0.6606 O   0  0  0  0  0  0  0  0  0  0  0  0
    7.1382    9.8403   -0.2039 C   0  0  0  0  0  0  0  0  0  0  0  0
    6.1991   10.3604   -0.9680 N   0  0  0  0  0  0  0  0  0  0  0  0
    5.4099   11.0775   -0.1036 C   0  0  0  0  0  0  0  0  0  0  0  0
    4.1671   11.6843   -0.3283 C   0  0  0  0  0  0  0  0  0  0  0  0
    3.4938   12.2487    0.7618 C   0  0  0  0  0  0  0  0  0  0  0  0
    4.0688   12.2535    2.0359 C   0  0  0  0  0  0  0  0  0  0  0  0
    5.3329   11.6988    2.2688 C   0  0  0  0  0  0  0  0  0  0  0  0
    5.9584   11.0986    1.1758 C   0  0  0  0  0  0  0  0  0  0  0  0
    7.1209   10.3826    1.0533 N   0  0  0  0  0  0  0  0  0  0  0  0
    6.4932    4.9592   -1.3834 C   0  0  0  0  0  0  0  0  0  0  0  0
    5.2168    4.9798   -0.5870 C   0  0  0  0  0  0  0  0  0  0  0  0
   11.3181   -0.4664    0.3107 H   0  0  0  0  0  0  0  0  0  0  0  0
   10.5097   -1.3957   -0.9654 H   0  0  0  0  0  0  0  0  0  0  0  0
   10.2685   -1.8310    0.7548 H   0  0  0  0  0  0  0  0  0  0  0  0
    7.8158   -1.4763    0.5228 H   0  0  0  0  0  0  0  0  0  0  0  0
    8.1431   -1.1837   -1.2055 H   0  0  0  0  0  0  0  0  0  0  0  0
    6.8921    0.8433    0.7407 H   0  0  0  0  0  0  0  0  0  0  0  0
    6.0049   -0.0632   -0.4827 H   0  0  0  0  0  0  0  0  0  0  0  0
    7.3219    0.9890   -2.2755 H   0  0  0  0  0  0  0  0  0  0  0  0
    8.3678    1.7781   -1.0509 H   0  0  0  0  0  0  0  0  0  0  0  0
    8.4907    2.7600   -3.0847 H   0  0  0  0  0  0  0  0  0  0  0  0
    9.5274    4.8823   -3.7314 H   0  0  0  0  0  0  0  0  0  0  0  0
    5.9484    7.5476   -0.7077 H   0  0  0  0  0  0  0  0  0  0  0  0
    6.4874    8.0356   -2.3191 H   0  0  0  0  0  0  0  0  0  0  0  0
    3.7198   11.6622   -1.3156 H   0  0  0  0  0  0  0  0  0  0  0  0
    2.5030   12.6721    0.6154 H   0  0  0  0  0  0  0  0  0  0  0  0
    3.5156   12.6838    2.8685 H   0  0  0  0  0  0  0  0  0  0  0  0
    5.7744   11.6954    3.2594 H   0  0  0  0  0  0  0  0  0  0  0  0
    7.7615   10.1295    1.7923 H   0  0  0  0  0  0  0  0  0  0  0  0
    4.8110    5.9787   -0.4215 H   0  0  0  0  0  0  0  0  0  0  0  0
    5.3601    4.5147    0.3927 H   0  0  0  0  0  0  0  0  0  0  0  0
    4.4360    4.4358   -1.1325 H   0  0  0  0  0  0  0  0  0  0  0  0
  1  2  1  0  0  0  0
  1 26  1  0  0  0  0
  1 27  1  0  0  0  0
  1 28  1  0  0  0  0
  2  3  1  0  0  0  0
  3  4  1  0  0  0  0
  3 29  1  0  0  0  0
  3 30  1  0  0  0  0
  4  5  1  0  0  0  0
  4 31  1  0  0  0  0
  4 32  1  0  0  0  0
  5  6  1  0  0  0  0
  5 33  1  0  0  0  0
  5 34  1  0  0  0  0
  6  7  1  0  0  0  0
  7  8  1  0  0  0  0
  7 24  2  0  0  0  0
  8  9  2  0  0  0  0
  8 35  1  0  0  0  0
  9 10  1  0  0  0  0
  9 36  1  0  0  0  0
 10 11  2  0  0  0  0
 11 12  1  0  0  0  0
 11 24  1  0  0  0  0
 12 13  1  0  0  0  0
 12 37  1  0  0  0  0
 12 38  1  0  0  0  0
 13 14  2  0  0  0  0
 13 15  1  0  0  0  0
 15 16  2  0  0  0  0
 15 23  1  0  0  0  0
 16 17  1  0  0  0  0
 17 18  1  0  0  0  0
 17 22  2  0  0  0  0
 18 19  2  0  0  0  0
 18 39  1  0  0  0  0
 19 20  1  0  0  0  0
 19 40  1  0  0  0  0
 20 21  2  0  0  0  0
 20 41  1  0  0  0  0
 21 22  1  0  0  0  0
 21 42  1  0  0  0  0
 22 23  1  0  0  0  0
 23 43  1  0  0  0  0
 24 25  1  0  0  0  0
 25 44  1  0  0  0  0
 25 45  1  0  0  0  0
 25 46  1  0  0  0  0
M  END
>  <Line_Number>
225


> <IC50>
290

$$$$
