145982844.0
 OpenBabel09092522103D

 27 27  0  0  0  0  0  0  0  0999 V2000
    2.5313    0.3382   -0.0165 C   0  0  0  0  0  0  0  0  0  0  0  0
    1.0492    0.0705   -0.0055 C   0  0  0  0  0  0  0  0  0  0  0  0
    0.2346    1.2260   -0.0005 C   0  0  0  0  0  0  0  0  0  0  0  0
   -1.1550    1.1483    0.0033 C   0  0  0  0  0  0  0  0  0  0  0  0
   -1.7675   -0.0953    0.0029 C   0  0  0  0  0  0  0  0  0  0  0  0
   -0.9841   -1.2508    0.0003 C   0  0  0  0  0  0  0  0  0  0  0  0
    0.4223   -1.1951   -0.0038 C   0  0  0  0  0  0  0  0  0  0  0  0
    0.9756   -2.4573   -0.0067 O   0  0  0  0  0  0  0  0  0  0  0  0
    2.3896   -2.5603   -0.0086 C   0  0  0  0  0  0  0  0  0  0  0  0
    2.8693   -4.0049   -0.0131 C   0  0  0  0  0  0  0  0  0  0  0  0
    4.3827   -3.9903   -0.0205 C   0  0  0  0  0  0  0  0  0  0  0  0
    5.0633   -2.9648   -0.0215 O   0  0  0  0  0  0  0  0  0  0  0  0
    4.9711   -5.2248   -0.0253 N   0  0  0  0  0  0  0  0  0  0  0  0
    6.3850   -5.2349   -0.0295 O   0  0  0  0  0  0  0  0  0  0  0  0
    2.7499    1.4120   -0.0093 H   0  0  0  0  0  0  0  0  0  0  0  0
    2.9937   -0.0500   -0.9272 H   0  0  0  0  0  0  0  0  0  0  0  0
    3.0128   -0.0640    0.8779 H   0  0  0  0  0  0  0  0  0  0  0  0
    0.6921    2.2151   -0.0007 H   0  0  0  0  0  0  0  0  0  0  0  0
   -1.7492    2.0580    0.0055 H   0  0  0  0  0  0  0  0  0  0  0  0
   -2.8516   -0.1665    0.0045 H   0  0  0  0  0  0  0  0  0  0  0  0
   -1.4826   -2.2193    0.0006 H   0  0  0  0  0  0  0  0  0  0  0  0
    2.7816   -2.0937    0.8989 H   0  0  0  0  0  0  0  0  0  0  0  0
    2.7790   -2.0893   -0.9148 H   0  0  0  0  0  0  0  0  0  0  0  0
    2.4987   -4.5330   -0.8980 H   0  0  0  0  0  0  0  0  0  0  0  0
    2.5062   -4.5368    0.8727 H   0  0  0  0  0  0  0  0  0  0  0  0
    4.4940   -6.1184   -0.0204 H   0  0  0  0  0  0  0  0  0  0  0  0
    6.6005   -4.2729   -0.0280 H   0  0  0  0  0  0  0  0  0  0  0  0
  1  2  1  0  0  0  0
  1 15  1  0  0  0  0
  1 16  1  0  0  0  0
  1 17  1  0  0  0  0
  2  3  1  0  0  0  0
  2  7  2  0  0  0  0
  3  4  2  0  0  0  0
  3 18  1  0  0  0  0
  4  5  1  0  0  0  0
  4 19  1  0  0  0  0
  5  6  2  0  0  0  0
  5 20  1  0  0  0  0
  6  7  1  0  0  0  0
  6 21  1  0  0  0  0
  7  8  1  0  0  0  0
  8  9  1  0  0  0  0
  9 10  1  0  0  0  0
  9 22  1  0  0  0  0
  9 23  1  0  0  0  0
 10 11  1  0  0  0  0
 10 24  1  0  0  0  0
 10 25  1  0  0  0  0
 11 12  2  0  0  0  0
 11 13  1  0  0  0  0
 13 14  1  0  0  0  0
 13 26  1  0  0  0  0
 14 27  1  0  0  0  0
M  END
>  <Line_Number>
227


> <IC50>
6740

$$$$
