145982793.0
 OpenBabel09092522103D

 24 24  0  0  0  0  0  0  0  0999 V2000
    0.9650    0.0153   -0.2208 O   0  0  0  0  0  0  0  0  0  0  0  0
    2.1873    0.0071   -0.1077 C   0  0  0  0  0  0  0  0  0  0  0  0
    2.9239   -0.3718    1.1542 C   0  0  0  0  0  0  0  0  0  0  0  0
    1.9474   -0.7872    2.2432 C   0  0  0  0  0  0  0  0  0  0  0  0
    2.6887   -1.1355    3.4170 O   0  0  0  0  0  0  0  0  0  0  0  0
    1.9590   -1.5849    4.4855 C   0  0  0  0  0  0  0  0  0  0  0  0
    0.5666   -1.6743    4.5395 C   0  0  0  0  0  0  0  0  0  0  0  0
   -0.0649   -2.1606    5.6880 C   0  0  0  0  0  0  0  0  0  0  0  0
    0.6892   -2.5594    6.7927 C   0  0  0  0  0  0  0  0  0  0  0  0
   -0.1609   -3.1578    8.1720 Cl  0  0  0  0  0  0  0  0  0  0  0  0
    2.0836   -2.4650    6.7479 C   0  0  0  0  0  0  0  0  0  0  0  0
    3.0842   -2.9350    8.0764 Cl  0  0  0  0  0  0  0  0  0  0  0  0
    2.7127   -1.9775    5.5962 C   0  0  0  0  0  0  0  0  0  0  0  0
    3.0177    0.3483   -1.1452 N   0  0  0  0  0  0  0  0  0  0  0  0
    2.3966    0.7675   -2.3414 O   0  0  0  0  0  0  0  0  0  0  0  0
    3.5239    0.4816    1.4913 H   0  0  0  0  0  0  0  0  0  0  0  0
    3.6167   -1.1924    0.9369 H   0  0  0  0  0  0  0  0  0  0  0  0
    1.3670   -1.6519    1.8977 H   0  0  0  0  0  0  0  0  0  0  0  0
    1.2716    0.0478    2.4665 H   0  0  0  0  0  0  0  0  0  0  0  0
   -0.0618   -1.3746    3.7060 H   0  0  0  0  0  0  0  0  0  0  0  0
   -1.1506   -2.2262    5.7103 H   0  0  0  0  0  0  0  0  0  0  0  0
    3.7968   -1.9041    5.5588 H   0  0  0  0  0  0  0  0  0  0  0  0
    4.0200    0.4848   -1.0710 H   0  0  0  0  0  0  0  0  0  0  0  0
    1.4415    0.6846   -2.1263 H   0  0  0  0  0  0  0  0  0  0  0  0
  1  2  2  0  0  0  0
  2  3  1  0  0  0  0
  2 14  1  0  0  0  0
  3  4  1  0  0  0  0
  3 16  1  0  0  0  0
  3 17  1  0  0  0  0
  4  5  1  0  0  0  0
  4 18  1  0  0  0  0
  4 19  1  0  0  0  0
  5  6  1  0  0  0  0
  6  7  1  0  0  0  0
  6 13  2  0  0  0  0
  7  8  2  0  0  0  0
  7 20  1  0  0  0  0
  8  9  1  0  0  0  0
  8 21  1  0  0  0  0
  9 10  1  0  0  0  0
  9 11  2  0  0  0  0
 11 12  1  0  0  0  0
 11 13  1  0  0  0  0
 13 22  1  0  0  0  0
 14 15  1  0  0  0  0
 14 23  1  0  0  0  0
 15 24  1  0  0  0  0
M  END
>  <Line_Number>
228


> <IC50>
475

$$$$
