19423878.0
 OpenBabel09092522103D

 37 38  0  0  0  0  0  0  0  0999 V2000
    1.0458    0.1546   -0.4364 C   0  0  0  0  0  0  0  0  0  0  0  0
    2.3865    0.0331    0.0290 O   0  0  0  0  0  0  0  0  0  0  0  0
    3.0682   -1.0876   -0.3673 C   0  0  0  0  0  0  0  0  0  0  0  0
    2.7429   -1.7817   -1.5383 C   0  0  0  0  0  0  0  0  0  0  0  0
    3.4795   -2.8929   -1.9461 C   0  0  0  0  0  0  0  0  0  0  0  0
    4.5912   -3.3229   -1.2201 C   0  0  0  0  0  0  0  0  0  0  0  0
    5.3930   -4.5429   -1.6316 C   0  0  0  0  0  0  0  0  0  0  0  0
    5.4701   -4.7767   -3.1490 C   0  0  0  0  0  0  0  0  0  0  0  0
    6.2903   -5.9896   -3.5096 C   0  0  0  0  0  0  0  0  0  0  0  0
    7.6685   -5.8574   -3.7328 C   0  0  0  0  0  0  0  0  0  0  0  0
    8.4414   -6.9678   -4.0700 C   0  0  0  0  0  0  0  0  0  0  0  0
    7.8486   -8.2249   -4.1811 C   0  0  0  0  0  0  0  0  0  0  0  0
    6.4796   -8.3726   -3.9624 C   0  0  0  0  0  0  0  0  0  0  0  0
    5.7102   -7.2579   -3.6321 C   0  0  0  0  0  0  0  0  0  0  0  0
    4.3642   -7.3917   -3.4330 O   0  0  0  0  0  0  0  0  0  0  0  0
    4.9211   -2.6282   -0.0489 C   0  0  0  0  0  0  0  0  0  0  0  0
    4.1682   -1.5211    0.3890 C   0  0  0  0  0  0  0  0  0  0  0  0
    4.6517   -0.9604    1.5432 O   0  0  0  0  0  0  0  0  0  0  0  0
    3.6973   -0.3497    2.4048 C   0  0  0  0  0  0  0  0  0  0  0  0
    0.5865    1.0048    0.0758 H   0  0  0  0  0  0  0  0  0  0  0  0
    0.4618   -0.7402   -0.1932 H   0  0  0  0  0  0  0  0  0  0  0  0
    1.0139    0.3669   -1.5100 H   0  0  0  0  0  0  0  0  0  0  0  0
    1.9224   -1.4740   -2.1768 H   0  0  0  0  0  0  0  0  0  0  0  0
    3.1607   -3.4040   -2.8505 H   0  0  0  0  0  0  0  0  0  0  0  0
    4.9547   -5.4193   -1.1369 H   0  0  0  0  0  0  0  0  0  0  0  0
    6.4151   -4.4404   -1.2439 H   0  0  0  0  0  0  0  0  0  0  0  0
    5.8919   -3.8906   -3.6426 H   0  0  0  0  0  0  0  0  0  0  0  0
    4.4710   -4.8984   -3.5826 H   0  0  0  0  0  0  0  0  0  0  0  0
    8.1435   -4.8816   -3.6512 H   0  0  0  0  0  0  0  0  0  0  0  0
    9.5077   -6.8515   -4.2461 H   0  0  0  0  0  0  0  0  0  0  0  0
    8.4545   -9.0888   -4.4397 H   0  0  0  0  0  0  0  0  0  0  0  0
    6.0328   -9.3576   -4.0507 H   0  0  0  0  0  0  0  0  0  0  0  0
    4.1006   -8.2876   -3.6969 H   0  0  0  0  0  0  0  0  0  0  0  0
    5.7708   -2.9476    0.5521 H   0  0  0  0  0  0  0  0  0  0  0  0
    4.1565   -0.2594    3.3951 H   0  0  0  0  0  0  0  0  0  0  0  0
    2.7949   -0.9609    2.5169 H   0  0  0  0  0  0  0  0  0  0  0  0
    3.4596    0.6642    2.0721 H   0  0  0  0  0  0  0  0  0  0  0  0
  1  2  1  0  0  0  0
  1 20  1  0  0  0  0
  1 21  1  0  0  0  0
  1 22  1  0  0  0  0
  2  3  1  0  0  0  0
  3  4  1  0  0  0  0
  3 17  2  0  0  0  0
  4  5  2  0  0  0  0
  4 23  1  0  0  0  0
  5  6  1  0  0  0  0
  5 24  1  0  0  0  0
  6  7  1  0  0  0  0
  6 16  2  0  0  0  0
  7  8  1  0  0  0  0
  7 25  1  0  0  0  0
  7 26  1  0  0  0  0
  8  9  1  0  0  0  0
  8 27  1  0  0  0  0
  8 28  1  0  0  0  0
  9 10  1  0  0  0  0
  9 14  2  0  0  0  0
 10 11  2  0  0  0  0
 10 29  1  0  0  0  0
 11 12  1  0  0  0  0
 11 30  1  0  0  0  0
 12 13  2  0  0  0  0
 12 31  1  0  0  0  0
 13 14  1  0  0  0  0
 13 32  1  0  0  0  0
 14 15  1  0  0  0  0
 15 33  1  0  0  0  0
 16 17  1  0  0  0  0
 16 34  1  0  0  0  0
 17 18  1  0  0  0  0
 18 19  1  0  0  0  0
 19 35  1  0  0  0  0
 19 36  1  0  0  0  0
 19 37  1  0  0  0  0
M  END
>  <Line_Number>
22


> <IC50>
227000

$$$$
