145983362.0
 OpenBabel09092522103D

 24 24  0  0  0  0  0  0  0  0999 V2000
    0.9821   -0.0602    0.1147 O   0  0  0  0  0  0  0  0  0  0  0  0
    2.2027   -0.0462   -0.0211 C   0  0  0  0  0  0  0  0  0  0  0  0
    2.9352    0.7740   -1.0559 C   0  0  0  0  0  0  0  0  0  0  0  0
    1.9551    1.5649   -1.9091 C   0  0  0  0  0  0  0  0  0  0  0  0
    2.6849    2.3325   -2.8726 O   0  0  0  0  0  0  0  0  0  0  0  0
    1.9359    3.1316   -3.6992 C   0  0  0  0  0  0  0  0  0  0  0  0
    0.5393    3.2146   -3.7007 C   0  0  0  0  0  0  0  0  0  0  0  0
   -0.1193    4.0720   -4.5872 C   0  0  0  0  0  0  0  0  0  0  0  0
    0.6131    4.8514   -5.4789 C   0  0  0  0  0  0  0  0  0  0  0  0
    2.0031    4.7673   -5.4819 C   0  0  0  0  0  0  0  0  0  0  0  0
    2.9071    5.7326   -6.5847 Cl  0  0  0  0  0  0  0  0  0  0  0  0
    2.6652    3.9124   -4.6001 C   0  0  0  0  0  0  0  0  0  0  0  0
    3.0304   -0.7916    0.7784 N   0  0  0  0  0  0  0  0  0  0  0  0
    2.4186   -1.5794    1.7765 O   0  0  0  0  0  0  0  0  0  0  0  0
    3.5338    0.1085   -1.6884 H   0  0  0  0  0  0  0  0  0  0  0  0
    3.6290    1.4552   -0.5501 H   0  0  0  0  0  0  0  0  0  0  0  0
    1.3744    2.2356   -1.2637 H   0  0  0  0  0  0  0  0  0  0  0  0
    1.2815    0.8695   -2.4248 H   0  0  0  0  0  0  0  0  0  0  0  0
   -0.0714    2.6252   -3.0239 H   0  0  0  0  0  0  0  0  0  0  0  0
   -1.2044    4.1287   -4.5766 H   0  0  0  0  0  0  0  0  0  0  0  0
    0.0957    5.5176   -6.1638 H   0  0  0  0  0  0  0  0  0  0  0  0
    3.7504    3.8537   -4.6105 H   0  0  0  0  0  0  0  0  0  0  0  0
    4.0421   -0.8195    0.7177 H   0  0  0  0  0  0  0  0  0  0  0  0
    1.4648   -1.3790    1.6526 H   0  0  0  0  0  0  0  0  0  0  0  0
  1  2  2  0  0  0  0
  2  3  1  0  0  0  0
  2 13  1  0  0  0  0
  3  4  1  0  0  0  0
  3 15  1  0  0  0  0
  3 16  1  0  0  0  0
  4  5  1  0  0  0  0
  4 17  1  0  0  0  0
  4 18  1  0  0  0  0
  5  6  1  0  0  0  0
  6  7  1  0  0  0  0
  6 12  2  0  0  0  0
  7  8  2  0  0  0  0
  7 19  1  0  0  0  0
  8  9  1  0  0  0  0
  8 20  1  0  0  0  0
  9 10  2  0  0  0  0
  9 21  1  0  0  0  0
 10 11  1  0  0  0  0
 10 12  1  0  0  0  0
 12 22  1  0  0  0  0
 13 14  1  0  0  0  0
 13 23  1  0  0  0  0
 14 24  1  0  0  0  0
M  END
>  <Line_Number>
232


> <IC50>
1230

$$$$
