145984684.0
 OpenBabel09092522103D

 30 30  0  0  0  0  0  0  0  0999 V2000
    2.5210    1.0865    0.0057 C   0  0  0  0  0  0  0  0  0  0  0  0
    1.2257    0.3287   -0.0102 C   0  0  0  0  0  0  0  0  0  0  0  0
   -0.0021    0.9997   -0.0062 C   0  0  0  0  0  0  0  0  0  0  0  0
   -1.2057    0.2837   -0.0010 C   0  0  0  0  0  0  0  0  0  0  0  0
   -2.5234    1.0000   -0.0014 C   0  0  0  0  0  0  0  0  0  0  0  0
   -1.1671   -1.1185   -0.0009 C   0  0  0  0  0  0  0  0  0  0  0  0
    0.0508   -1.8017   -0.0265 C   0  0  0  0  0  0  0  0  0  0  0  0
   -0.0340   -3.1709   -0.0152 O   0  0  0  0  0  0  0  0  0  0  0  0
    1.0581   -3.8516   -0.6426 C   0  0  0  0  0  0  0  0  0  0  0  0
    0.8049   -5.3518   -0.5843 C   0  0  0  0  0  0  0  0  0  0  0  0
    1.9322   -6.0981   -1.2545 C   0  0  0  0  0  0  0  0  0  0  0  0
    2.9047   -5.5603   -1.7782 O   0  0  0  0  0  0  0  0  0  0  0  0
    1.7899   -7.4623   -1.2350 N   0  0  0  0  0  0  0  0  0  0  0  0
    2.8242   -8.2101   -1.8387 O   0  0  0  0  0  0  0  0  0  0  0  0
    1.2439   -1.0741   -0.0183 C   0  0  0  0  0  0  0  0  0  0  0  0
    2.3554    2.1686   -0.0109 H   0  0  0  0  0  0  0  0  0  0  0  0
    3.1205    0.8253   -0.8723 H   0  0  0  0  0  0  0  0  0  0  0  0
    3.0863    0.8460    0.9119 H   0  0  0  0  0  0  0  0  0  0  0  0
   -0.0217    2.0876   -0.0025 H   0  0  0  0  0  0  0  0  0  0  0  0
   -2.3903    2.0871    0.0156 H   0  0  0  0  0  0  0  0  0  0  0  0
   -3.1063    0.7207    0.8818 H   0  0  0  0  0  0  0  0  0  0  0  0
   -3.0899    0.7464   -0.9034 H   0  0  0  0  0  0  0  0  0  0  0  0
   -2.0947   -1.6870    0.0068 H   0  0  0  0  0  0  0  0  0  0  0  0
    1.9962   -3.6448   -0.1166 H   0  0  0  0  0  0  0  0  0  0  0  0
    1.1418   -3.5237   -1.6865 H   0  0  0  0  0  0  0  0  0  0  0  0
   -0.1422   -5.5998   -1.0755 H   0  0  0  0  0  0  0  0  0  0  0  0
    0.7266   -5.6764    0.4597 H   0  0  0  0  0  0  0  0  0  0  0  0
    1.0321   -7.9751   -0.8009 H   0  0  0  0  0  0  0  0  0  0  0  0
    3.4334   -7.5076   -2.1569 H   0  0  0  0  0  0  0  0  0  0  0  0
    2.2070   -1.5702    0.0013 H   0  0  0  0  0  0  0  0  0  0  0  0
  1  2  1  0  0  0  0
  1 16  1  0  0  0  0
  1 17  1  0  0  0  0
  1 18  1  0  0  0  0
  2  3  1  0  0  0  0
  2 15  2  0  0  0  0
  3  4  2  0  0  0  0
  3 19  1  0  0  0  0
  4  5  1  0  0  0  0
  4  6  1  0  0  0  0
  5 20  1  0  0  0  0
  5 21  1  0  0  0  0
  5 22  1  0  0  0  0
  6  7  2  0  0  0  0
  6 23  1  0  0  0  0
  7  8  1  0  0  0  0
  7 15  1  0  0  0  0
  8  9  1  0  0  0  0
  9 10  1  0  0  0  0
  9 24  1  0  0  0  0
  9 25  1  0  0  0  0
 10 11  1  0  0  0  0
 10 26  1  0  0  0  0
 10 27  1  0  0  0  0
 11 12  2  0  0  0  0
 11 13  1  0  0  0  0
 13 14  1  0  0  0  0
 13 28  1  0  0  0  0
 14 29  1  0  0  0  0
 15 30  1  0  0  0  0
M  END
>  <Line_Number>
233


> <IC50>
10400

$$$$
