145984854.0
 OpenBabel09092522103D

 21 21  0  0  0  0  0  0  0  0999 V2000
    2.1735    1.3103    1.0832 O   0  0  0  0  0  0  0  0  0  0  0  0
    1.9091    0.1498    0.7670 C   0  0  0  0  0  0  0  0  0  0  0  0
    2.6284   -1.0538    1.3666 C   0  0  0  0  0  0  0  0  0  0  0  0
    2.1511   -2.2931    0.8440 O   0  0  0  0  0  0  0  0  0  0  0  0
    2.7493   -3.4275    1.3258 C   0  0  0  0  0  0  0  0  0  0  0  0
    3.7813   -3.4676    2.2649 C   0  0  0  0  0  0  0  0  0  0  0  0
    4.3043   -4.6957    2.6679 C   0  0  0  0  0  0  0  0  0  0  0  0
    5.2952   -4.7169    3.5696 F   0  0  0  0  0  0  0  0  0  0  0  0
    3.8226   -5.8899    2.1571 C   0  0  0  0  0  0  0  0  0  0  0  0
    2.7959   -5.8433    1.2262 C   0  0  0  0  0  0  0  0  0  0  0  0
    2.3144   -6.9864    0.7218 F   0  0  0  0  0  0  0  0  0  0  0  0
    2.2572   -4.6283    0.8068 C   0  0  0  0  0  0  0  0  0  0  0  0
    0.9452   -0.1490   -0.1563 N   0  0  0  0  0  0  0  0  0  0  0  0
    0.2585    0.9261   -0.7556 O   0  0  0  0  0  0  0  0  0  0  0  0
    2.4594   -1.0166    2.4492 H   0  0  0  0  0  0  0  0  0  0  0  0
    3.6921   -0.9334    1.1289 H   0  0  0  0  0  0  0  0  0  0  0  0
    4.2087   -2.5756    2.7081 H   0  0  0  0  0  0  0  0  0  0  0  0
    4.2384   -6.8372    2.4783 H   0  0  0  0  0  0  0  0  0  0  0  0
    1.4543   -4.6317    0.0754 H   0  0  0  0  0  0  0  0  0  0  0  0
    0.7142   -1.0942   -0.4471 H   0  0  0  0  0  0  0  0  0  0  0  0
    0.6818    1.7073   -0.3366 H   0  0  0  0  0  0  0  0  0  0  0  0
  1  2  2  0  0  0  0
  2  3  1  0  0  0  0
  2 13  1  0  0  0  0
  3  4  1  0  0  0  0
  3 15  1  0  0  0  0
  3 16  1  0  0  0  0
  4  5  1  0  0  0  0
  5  6  1  0  0  0  0
  5 12  2  0  0  0  0
  6  7  2  0  0  0  0
  6 17  1  0  0  0  0
  7  8  1  0  0  0  0
  7  9  1  0  0  0  0
  9 10  2  0  0  0  0
  9 18  1  0  0  0  0
 10 11  1  0  0  0  0
 10 12  1  0  0  0  0
 12 19  1  0  0  0  0
 13 14  1  0  0  0  0
 13 20  1  0  0  0  0
 14 21  1  0  0  0  0
M  END
>  <Line_Number>
234


> <IC50>
205400

$$$$
