145985446.0
 OpenBabel09092522103D

 24 24  0  0  0  0  0  0  0  0999 V2000
    0.9678    0.0828   -0.1039 O   0  0  0  0  0  0  0  0  0  0  0  0
    2.1923    0.0149   -0.0477 C   0  0  0  0  0  0  0  0  0  0  0  0
    2.9503   -0.9689    0.8234 C   0  0  0  0  0  0  0  0  0  0  0  0
    1.9899   -1.8414    1.6142 C   0  0  0  0  0  0  0  0  0  0  0  0
    2.7402   -2.7533    2.4267 O   0  0  0  0  0  0  0  0  0  0  0  0
    1.9870   -3.6294    3.1746 C   0  0  0  0  0  0  0  0  0  0  0  0
    0.7076   -4.0513    2.7947 C   0  0  0  0  0  0  0  0  0  0  0  0
   -0.0005   -4.9598    3.5783 C   0  0  0  0  0  0  0  0  0  0  0  0
   -1.5656   -5.4661    3.0738 Cl  0  0  0  0  0  0  0  0  0  0  0  0
    0.5528   -5.4660    4.7492 C   0  0  0  0  0  0  0  0  0  0  0  0
    1.8318   -5.0631    5.1365 C   0  0  0  0  0  0  0  0  0  0  0  0
    2.5501   -4.1533    4.3502 C   0  0  0  0  0  0  0  0  0  0  0  0
    4.1287   -3.6930    4.8811 Cl  0  0  0  0  0  0  0  0  0  0  0  0
    3.0119    0.8297   -0.7855 N   0  0  0  0  0  0  0  0  0  0  0  0
    2.4396    1.7743   -1.6514 O   0  0  0  0  0  0  0  0  0  0  0  0
    3.6151   -0.4286    1.5058 H   0  0  0  0  0  0  0  0  0  0  0  0
    3.5810   -1.6054    0.1907 H   0  0  0  0  0  0  0  0  0  0  0  0
    1.3705   -2.3831    0.8931 H   0  0  0  0  0  0  0  0  0  0  0  0
    1.3532   -1.2249    2.2606 H   0  0  0  0  0  0  0  0  0  0  0  0
    0.2387   -3.7056    1.8810 H   0  0  0  0  0  0  0  0  0  0  0  0
   -0.0022   -6.1763    5.3548 H   0  0  0  0  0  0  0  0  0  0  0  0
    2.2641   -5.4657    6.0496 H   0  0  0  0  0  0  0  0  0  0  0  0
    4.0244    0.7768   -0.7629 H   0  0  0  0  0  0  0  0  0  0  0  0
    1.4727    1.6128   -1.5903 H   0  0  0  0  0  0  0  0  0  0  0  0
  1  2  2  0  0  0  0
  2  3  1  0  0  0  0
  2 14  1  0  0  0  0
  3  4  1  0  0  0  0
  3 16  1  0  0  0  0
  3 17  1  0  0  0  0
  4  5  1  0  0  0  0
  4 18  1  0  0  0  0
  4 19  1  0  0  0  0
  5  6  1  0  0  0  0
  6  7  1  0  0  0  0
  6 12  2  0  0  0  0
  7  8  2  0  0  0  0
  7 20  1  0  0  0  0
  8  9  1  0  0  0  0
  8 10  1  0  0  0  0
 10 11  2  0  0  0  0
 10 21  1  0  0  0  0
 11 12  1  0  0  0  0
 11 22  1  0  0  0  0
 12 13  1  0  0  0  0
 14 15  1  0  0  0  0
 14 23  1  0  0  0  0
 15 24  1  0  0  0  0
M  END
>  <Line_Number>
236


> <IC50>
13100

$$$$
