145986005.0
 OpenBabel09092522103D

 21 21  0  0  0  0  0  0  0  0999 V2000
    2.2863    1.4901   -0.7186 O   0  0  0  0  0  0  0  0  0  0  0  0
    1.9857    0.7043    0.1791 C   0  0  0  0  0  0  0  0  0  0  0  0
    2.6857    0.6833    1.5381 C   0  0  0  0  0  0  0  0  0  0  0  0
    2.1598   -0.3325    2.3914 O   0  0  0  0  0  0  0  0  0  0  0  0
    2.6844   -0.4170    3.6531 C   0  0  0  0  0  0  0  0  0  0  0  0
    3.7274    0.3605    4.1562 C   0  0  0  0  0  0  0  0  0  0  0  0
    4.1626    0.1755    5.4710 C   0  0  0  0  0  0  0  0  0  0  0  0
    5.4413    1.1524    6.0837 Cl  0  0  0  0  0  0  0  0  0  0  0  0
    3.5739   -0.7805    6.2928 C   0  0  0  0  0  0  0  0  0  0  0  0
    2.5377   -1.5580    5.7864 C   0  0  0  0  0  0  0  0  0  0  0  0
    1.7916   -2.7393    6.7910 Cl  0  0  0  0  0  0  0  0  0  0  0  0
    2.0935   -1.3839    4.4748 C   0  0  0  0  0  0  0  0  0  0  0  0
    0.9918   -0.2257    0.0373 N   0  0  0  0  0  0  0  0  0  0  0  0
    0.3092   -0.3029   -1.1925 O   0  0  0  0  0  0  0  0  0  0  0  0
    2.5352    1.6711    1.9912 H   0  0  0  0  0  0  0  0  0  0  0  0
    3.7488    0.4955    1.3465 H   0  0  0  0  0  0  0  0  0  0  0  0
    4.2185    1.1175    3.5538 H   0  0  0  0  0  0  0  0  0  0  0  0
    3.9163   -0.9149    7.3149 H   0  0  0  0  0  0  0  0  0  0  0  0
    1.2818   -1.9972    4.0914 H   0  0  0  0  0  0  0  0  0  0  0  0
    0.7571   -0.8984    0.7610 H   0  0  0  0  0  0  0  0  0  0  0  0
    0.7599    0.3835   -1.7313 H   0  0  0  0  0  0  0  0  0  0  0  0
  1  2  2  0  0  0  0
  2  3  1  0  0  0  0
  2 13  1  0  0  0  0
  3  4  1  0  0  0  0
  3 15  1  0  0  0  0
  3 16  1  0  0  0  0
  4  5  1  0  0  0  0
  5  6  1  0  0  0  0
  5 12  2  0  0  0  0
  6  7  2  0  0  0  0
  6 17  1  0  0  0  0
  7  8  1  0  0  0  0
  7  9  1  0  0  0  0
  9 10  2  0  0  0  0
  9 18  1  0  0  0  0
 10 11  1  0  0  0  0
 10 12  1  0  0  0  0
 12 19  1  0  0  0  0
 13 14  1  0  0  0  0
 13 20  1  0  0  0  0
 14 21  1  0  0  0  0
M  END
>  <Line_Number>
238


> <IC50>
3220

$$$$
