145982530.0
 OpenBabel09092522103D

 27 27  0  0  0  0  0  0  0  0999 V2000
    2.5282    1.0812    0.0047 C   0  0  0  0  0  0  0  0  0  0  0  0
    1.2312    0.3258   -0.0129 C   0  0  0  0  0  0  0  0  0  0  0  0
    0.0072    1.0073   -0.0099 C   0  0  0  0  0  0  0  0  0  0  0  0
   -1.2009    0.3026   -0.0049 C   0  0  0  0  0  0  0  0  0  0  0  0
   -2.5176    1.0215   -0.0042 C   0  0  0  0  0  0  0  0  0  0  0  0
   -1.1718   -1.0970   -0.0007 C   0  0  0  0  0  0  0  0  0  0  0  0
    0.0417   -1.7918   -0.0215 C   0  0  0  0  0  0  0  0  0  0  0  0
   -0.0728   -3.1529    0.0173 O   0  0  0  0  0  0  0  0  0  0  0  0
    0.9745   -3.8908   -0.6080 C   0  0  0  0  0  0  0  0  0  0  0  0
    0.6917   -5.3881   -0.5323 C   0  0  0  0  0  0  0  0  0  0  0  0
    1.4464   -6.2376   -1.0062 O   0  0  0  0  0  0  0  0  0  0  0  0
   -0.4659   -5.7289    0.1149 N   0  0  0  0  0  0  0  0  0  0  0  0
   -0.7754   -7.0988    0.2300 O   0  0  0  0  0  0  0  0  0  0  0  0
    1.2400   -1.0782   -0.0183 C   0  0  0  0  0  0  0  0  0  0  0  0
    2.3646    2.1641   -0.0104 H   0  0  0  0  0  0  0  0  0  0  0  0
    3.1280    0.8213   -0.8730 H   0  0  0  0  0  0  0  0  0  0  0  0
    3.0929    0.8408    0.9118 H   0  0  0  0  0  0  0  0  0  0  0  0
   -0.0044    2.0959   -0.0060 H   0  0  0  0  0  0  0  0  0  0  0  0
   -2.3835    2.1076    0.0122 H   0  0  0  0  0  0  0  0  0  0  0  0
   -3.1004    0.7421    0.8792 H   0  0  0  0  0  0  0  0  0  0  0  0
   -3.0851    0.7663   -0.9052 H   0  0  0  0  0  0  0  0  0  0  0  0
   -2.1049   -1.6568    0.0088 H   0  0  0  0  0  0  0  0  0  0  0  0
    1.9303   -3.7298   -0.0986 H   0  0  0  0  0  0  0  0  0  0  0  0
    1.0423   -3.6192   -1.6684 H   0  0  0  0  0  0  0  0  0  0  0  0
   -1.1015   -5.0487    0.5223 H   0  0  0  0  0  0  0  0  0  0  0  0
   -0.0149   -7.5235   -0.2234 H   0  0  0  0  0  0  0  0  0  0  0  0
    2.1984   -1.5864    0.0090 H   0  0  0  0  0  0  0  0  0  0  0  0
  1  2  1  0  0  0  0
  1 15  1  0  0  0  0
  1 16  1  0  0  0  0
  1 17  1  0  0  0  0
  2  3  1  0  0  0  0
  2 14  2  0  0  0  0
  3  4  2  0  0  0  0
  3 18  1  0  0  0  0
  4  5  1  0  0  0  0
  4  6  1  0  0  0  0
  5 19  1  0  0  0  0
  5 20  1  0  0  0  0
  5 21  1  0  0  0  0
  6  7  2  0  0  0  0
  6 22  1  0  0  0  0
  7  8  1  0  0  0  0
  7 14  1  0  0  0  0
  8  9  1  0  0  0  0
  9 10  1  0  0  0  0
  9 23  1  0  0  0  0
  9 24  1  0  0  0  0
 10 11  2  0  0  0  0
 10 12  1  0  0  0  0
 12 13  1  0  0  0  0
 12 25  1  0  0  0  0
 13 26  1  0  0  0  0
 14 27  1  0  0  0  0
M  END
>  <Line_Number>
239


> <IC50>
41900

$$$$
