3252458.0
 OpenBabel09092522103D

 21 21  0  0  0  0  0  0  0  0999 V2000
    2.3435   -1.1680   -0.8720 O   0  0  0  0  0  0  0  0  0  0  0  0
    2.0239   -0.0651   -0.4297 C   0  0  0  0  0  0  0  0  0  0  0  0
    2.7029    1.2336   -0.8597 C   0  0  0  0  0  0  0  0  0  0  0  0
    2.1500    2.3497   -0.1655 O   0  0  0  0  0  0  0  0  0  0  0  0
    2.6339    3.5877   -0.4874 C   0  0  0  0  0  0  0  0  0  0  0  0
    3.6699    3.8588   -1.3819 C   0  0  0  0  0  0  0  0  0  0  0  0
    4.0602    5.1807   -1.6235 C   0  0  0  0  0  0  0  0  0  0  0  0
    3.4190    6.2338   -0.9737 C   0  0  0  0  0  0  0  0  0  0  0  0
    2.3891    5.9682   -0.0759 C   0  0  0  0  0  0  0  0  0  0  0  0
    2.0010    4.6491    0.1667 C   0  0  0  0  0  0  0  0  0  0  0  0
    1.0220    0.0898    0.4915 N   0  0  0  0  0  0  0  0  0  0  0  0
    0.3557   -1.0630    0.9501 O   0  0  0  0  0  0  0  0  0  0  0  0
    2.5433    1.3387   -1.9389 H   0  0  0  0  0  0  0  0  0  0  0  0
    3.7685    1.1336   -0.6238 H   0  0  0  0  0  0  0  0  0  0  0  0
    4.1971    3.0707   -1.9095 H   0  0  0  0  0  0  0  0  0  0  0  0
    4.8667    5.3884   -2.3230 H   0  0  0  0  0  0  0  0  0  0  0  0
    3.7219    7.2599   -1.1671 H   0  0  0  0  0  0  0  0  0  0  0  0
    1.8855    6.7851    0.4348 H   0  0  0  0  0  0  0  0  0  0  0  0
    1.1958    4.4507    0.8694 H   0  0  0  0  0  0  0  0  0  0  0  0
    0.7548    0.9916    0.8741 H   0  0  0  0  0  0  0  0  0  0  0  0
    0.8191   -1.7818    0.4681 H   0  0  0  0  0  0  0  0  0  0  0  0
  1  2  2  0  0  0  0
  2  3  1  0  0  0  0
  2 11  1  0  0  0  0
  3  4  1  0  0  0  0
  3 13  1  0  0  0  0
  3 14  1  0  0  0  0
  4  5  1  0  0  0  0
  5  6  1  0  0  0  0
  5 10  2  0  0  0  0
  6  7  2  0  0  0  0
  6 15  1  0  0  0  0
  7  8  1  0  0  0  0
  7 16  1  0  0  0  0
  8  9  2  0  0  0  0
  8 17  1  0  0  0  0
  9 10  1  0  0  0  0
  9 18  1  0  0  0  0
 10 19  1  0  0  0  0
 11 12  1  0  0  0  0
 11 20  1  0  0  0  0
 12 21  1  0  0  0  0
M  END
>  <Line_Number>
242


> <IC50>
131200

$$$$
