11183280.0
 OpenBabel09092522103D

 21 21  0  0  0  0  0  0  0  0999 V2000
    1.1319   -2.2090   -0.8559 O   0  0  0  0  0  0  0  0  0  0  0  0
    1.5855   -1.4294   -0.0223 C   0  0  0  0  0  0  0  0  0  0  0  0
    1.5788   -1.7184    1.4740 C   0  0  0  0  0  0  0  0  0  0  0  0
    2.1664   -0.6555    2.2277 O   0  0  0  0  0  0  0  0  0  0  0  0
    2.5717   -1.0034    3.4889 C   0  0  0  0  0  0  0  0  0  0  0  0
    3.5929   -0.2224    4.0377 C   0  0  0  0  0  0  0  0  0  0  0  0
    4.1198   -0.5347    5.2939 C   0  0  0  0  0  0  0  0  0  0  0  0
    3.6108   -1.6185    6.0062 C   0  0  0  0  0  0  0  0  0  0  0  0
    4.2756   -2.0294    7.5382 Cl  0  0  0  0  0  0  0  0  0  0  0  0
    2.5643   -2.3742    5.4842 C   0  0  0  0  0  0  0  0  0  0  0  0
    2.0360   -2.0593    4.2299 C   0  0  0  0  0  0  0  0  0  0  0  0
    2.1437   -0.2281   -0.3698 N   0  0  0  0  0  0  0  0  0  0  0  0
    2.1301    0.1316   -1.7314 O   0  0  0  0  0  0  0  0  0  0  0  0
    2.1399   -2.6517    1.6088 H   0  0  0  0  0  0  0  0  0  0  0  0
    0.5333   -1.8427    1.7767 H   0  0  0  0  0  0  0  0  0  0  0  0
    3.9978    0.6189    3.4810 H   0  0  0  0  0  0  0  0  0  0  0  0
    4.9300    0.0623    5.7045 H   0  0  0  0  0  0  0  0  0  0  0  0
    2.1564   -3.2117    6.0423 H   0  0  0  0  0  0  0  0  0  0  0  0
    1.2090   -2.6560    3.8589 H   0  0  0  0  0  0  0  0  0  0  0  0
    2.4361    0.4648    0.3132 H   0  0  0  0  0  0  0  0  0  0  0  0
    1.6491   -0.6182   -2.1438 H   0  0  0  0  0  0  0  0  0  0  0  0
  1  2  2  0  0  0  0
  2  3  1  0  0  0  0
  2 12  1  0  0  0  0
  3  4  1  0  0  0  0
  3 14  1  0  0  0  0
  3 15  1  0  0  0  0
  4  5  1  0  0  0  0
  5  6  1  0  0  0  0
  5 11  2  0  0  0  0
  6  7  2  0  0  0  0
  6 16  1  0  0  0  0
  7  8  1  0  0  0  0
  7 17  1  0  0  0  0
  8  9  1  0  0  0  0
  8 10  2  0  0  0  0
 10 11  1  0  0  0  0
 10 18  1  0  0  0  0
 11 19  1  0  0  0  0
 12 13  1  0  0  0  0
 12 20  1  0  0  0  0
 13 21  1  0  0  0  0
M  END
>  <Line_Number>
245


> <IC50>
1260

$$$$
