145984790.0
 OpenBabel09092522103D

 21 21  0  0  0  0  0  0  0  0999 V2000
    0.9126    0.9034   -1.5387 O   0  0  0  0  0  0  0  0  0  0  0  0
    1.0353    1.0236   -0.3204 C   0  0  0  0  0  0  0  0  0  0  0  0
    2.1566    1.8353    0.3285 C   0  0  0  0  0  0  0  0  0  0  0  0
    2.0857    1.7204    1.7506 O   0  0  0  0  0  0  0  0  0  0  0  0
    2.5562    2.7838    2.4651 C   0  0  0  0  0  0  0  0  0  0  0  0
    3.6099    3.6091    2.0746 C   0  0  0  0  0  0  0  0  0  0  0  0
    3.9997    4.6735    2.8951 C   0  0  0  0  0  0  0  0  0  0  0  0
    3.3465    4.9086    4.1098 C   0  0  0  0  0  0  0  0  0  0  0  0
    3.8670    6.2534    5.0601 Cl  0  0  0  0  0  0  0  0  0  0  0  0
    2.3095    4.0632    4.5144 C   0  0  0  0  0  0  0  0  0  0  0  0
    1.4573    4.2784    6.0001 Cl  0  0  0  0  0  0  0  0  0  0  0  0
    1.9255    2.9951    3.6929 C   0  0  0  0  0  0  0  0  0  0  0  0
    0.1522    0.4590    0.5636 N   0  0  0  0  0  0  0  0  0  0  0  0
   -0.8764   -0.3511    0.0435 O   0  0  0  0  0  0  0  0  0  0  0  0
    2.0328    2.8720   -0.0066 H   0  0  0  0  0  0  0  0  0  0  0  0
    3.1121    1.4272   -0.0155 H   0  0  0  0  0  0  0  0  0  0  0  0
    4.1518    3.4396    1.1484 H   0  0  0  0  0  0  0  0  0  0  0  0
    4.8193    5.3181    2.5838 H   0  0  0  0  0  0  0  0  0  0  0  0
    1.1212    2.3349    4.0044 H   0  0  0  0  0  0  0  0  0  0  0  0
    0.3162    0.4418    1.5658 H   0  0  0  0  0  0  0  0  0  0  0  0
   -0.7119   -0.3112   -0.9239 H   0  0  0  0  0  0  0  0  0  0  0  0
  1  2  2  0  0  0  0
  2  3  1  0  0  0  0
  2 13  1  0  0  0  0
  3  4  1  0  0  0  0
  3 15  1  0  0  0  0
  3 16  1  0  0  0  0
  4  5  1  0  0  0  0
  5  6  1  0  0  0  0
  5 12  2  0  0  0  0
  6  7  2  0  0  0  0
  6 17  1  0  0  0  0
  7  8  1  0  0  0  0
  7 18  1  0  0  0  0
  8  9  1  0  0  0  0
  8 10  2  0  0  0  0
 10 11  1  0  0  0  0
 10 12  1  0  0  0  0
 12 19  1  0  0  0  0
 13 14  1  0  0  0  0
 13 20  1  0  0  0  0
 14 21  1  0  0  0  0
M  END
>  <Line_Number>
247


> <IC50>
520

$$$$
