60651050.0
 OpenBabel09092522103D

 21 21  0  0  0  0  0  0  0  0999 V2000
    2.3540   -1.4858    0.1442 O   0  0  0  0  0  0  0  0  0  0  0  0
    1.9768   -0.4025   -0.2904 C   0  0  0  0  0  0  0  0  0  0  0  0
    2.6510    0.3094   -1.4675 C   0  0  0  0  0  0  0  0  0  0  0  0
    2.0372    1.5775   -1.6975 O   0  0  0  0  0  0  0  0  0  0  0  0
    2.4942    2.3250   -2.7462 C   0  0  0  0  0  0  0  0  0  0  0  0
    3.5584    1.9979   -3.5879 C   0  0  0  0  0  0  0  0  0  0  0  0
    3.9128    2.8540   -4.6367 C   0  0  0  0  0  0  0  0  0  0  0  0
    3.2077    4.0392   -4.8462 C   0  0  0  0  0  0  0  0  0  0  0  0
    2.1519    4.3675   -4.0010 C   0  0  0  0  0  0  0  0  0  0  0  0
    1.2747    5.8260   -4.2549 Cl  0  0  0  0  0  0  0  0  0  0  0  0
    1.7966    3.5189   -2.9539 C   0  0  0  0  0  0  0  0  0  0  0  0
    0.9134    0.2795    0.2410 N   0  0  0  0  0  0  0  0  0  0  0  0
    0.2608   -0.2542    1.3685 O   0  0  0  0  0  0  0  0  0  0  0  0
    2.5429   -0.3342   -2.3477 H   0  0  0  0  0  0  0  0  0  0  0  0
    3.7052    0.4472   -1.2024 H   0  0  0  0  0  0  0  0  0  0  0  0
    4.1340    1.0863   -3.4601 H   0  0  0  0  0  0  0  0  0  0  0  0
    4.7398    2.5949   -5.2941 H   0  0  0  0  0  0  0  0  0  0  0  0
    3.4834    4.6973   -5.6660 H   0  0  0  0  0  0  0  0  0  0  0  0
    0.9701    3.7824   -2.2992 H   0  0  0  0  0  0  0  0  0  0  0  0
    0.6449    1.2071   -0.0751 H   0  0  0  0  0  0  0  0  0  0  0  0
    0.8451   -0.9972    1.6255 H   0  0  0  0  0  0  0  0  0  0  0  0
  1  2  2  0  0  0  0
  2  3  1  0  0  0  0
  2 12  1  0  0  0  0
  3  4  1  0  0  0  0
  3 14  1  0  0  0  0
  3 15  1  0  0  0  0
  4  5  1  0  0  0  0
  5  6  1  0  0  0  0
  5 11  2  0  0  0  0
  6  7  2  0  0  0  0
  6 16  1  0  0  0  0
  7  8  1  0  0  0  0
  7 17  1  0  0  0  0
  8  9  2  0  0  0  0
  8 18  1  0  0  0  0
  9 10  1  0  0  0  0
  9 11  1  0  0  0  0
 11 19  1  0  0  0  0
 12 13  1  0  0  0  0
 12 20  1  0  0  0  0
 13 21  1  0  0  0  0
M  END
>  <Line_Number>
250


> <IC50>
10400

$$$$
