59336415.0
 OpenBabel09092522103D

 24 24  0  0  0  0  0  0  0  0999 V2000
    2.4645   -0.0141   -0.0110 C   0  0  0  0  0  0  0  0  0  0  0  0
    0.9650    0.0221   -0.0131 C   0  0  0  0  0  0  0  0  0  0  0  0
    0.2709    1.2371   -0.0213 C   0  0  0  0  0  0  0  0  0  0  0  0
   -1.1287    1.2602   -0.0299 C   0  0  0  0  0  0  0  0  0  0  0  0
   -1.8462    0.0649   -0.0318 C   0  0  0  0  0  0  0  0  0  0  0  0
   -3.2096   -0.0397   -0.0015 O   0  0  0  0  0  0  0  0  0  0  0  0
   -3.9323    1.0170   -0.6296 C   0  0  0  0  0  0  0  0  0  0  0  0
   -5.4302    0.7401   -0.5878 C   0  0  0  0  0  0  0  0  0  0  0  0
   -6.2673    1.5016   -1.0751 O   0  0  0  0  0  0  0  0  0  0  0  0
   -5.7898   -0.4187    0.0478 N   0  0  0  0  0  0  0  0  0  0  0  0
   -7.1636   -0.7172    0.1455 O   0  0  0  0  0  0  0  0  0  0  0  0
   -1.1581   -1.1484   -0.0049 C   0  0  0  0  0  0  0  0  0  0  0  0
    0.2378   -1.1727   -0.0048 C   0  0  0  0  0  0  0  0  0  0  0  0
    2.8913    0.9940    0.0083 H   0  0  0  0  0  0  0  0  0  0  0  0
    2.8297   -0.5169   -0.9123 H   0  0  0  0  0  0  0  0  0  0  0  0
    2.8283   -0.5489    0.8722 H   0  0  0  0  0  0  0  0  0  0  0  0
    0.8157    2.1796   -0.0106 H   0  0  0  0  0  0  0  0  0  0  0  0
   -1.6212    2.2265   -0.0084 H   0  0  0  0  0  0  0  0  0  0  0  0
   -3.6389    1.0968   -1.6835 H   0  0  0  0  0  0  0  0  0  0  0  0
   -3.7770    1.9648   -0.1042 H   0  0  0  0  0  0  0  0  0  0  0  0
   -5.1205   -1.0538    0.4742 H   0  0  0  0  0  0  0  0  0  0  0  0
   -7.5767    0.0508   -0.3056 H   0  0  0  0  0  0  0  0  0  0  0  0
   -1.7098   -2.0853    0.0083 H   0  0  0  0  0  0  0  0  0  0  0  0
    0.7539   -2.1300    0.0065 H   0  0  0  0  0  0  0  0  0  0  0  0
  1  2  1  0  0  0  0
  1 14  1  0  0  0  0
  1 15  1  0  0  0  0
  1 16  1  0  0  0  0
  2  3  1  0  0  0  0
  2 13  2  0  0  0  0
  3  4  2  0  0  0  0
  3 17  1  0  0  0  0
  4  5  1  0  0  0  0
  4 18  1  0  0  0  0
  5  6  1  0  0  0  0
  5 12  2  0  0  0  0
  6  7  1  0  0  0  0
  7  8  1  0  0  0  0
  7 19  1  0  0  0  0
  7 20  1  0  0  0  0
  8  9  2  0  0  0  0
  8 10  1  0  0  0  0
 10 11  1  0  0  0  0
 10 21  1  0  0  0  0
 11 22  1  0  0  0  0
 12 13  1  0  0  0  0
 12 23  1  0  0  0  0
 13 24  1  0  0  0  0
M  END
>  <Line_Number>
251


> <IC50>
57100

$$$$
