24990996.0
 OpenBabel09092522103D

 21 21  0  0  0  0  0  0  0  0999 V2000
    1.1412   -1.4733   -1.8126 O   0  0  0  0  0  0  0  0  0  0  0  0
    1.6581   -1.3293   -0.7058 C   0  0  0  0  0  0  0  0  0  0  0  0
    1.5043   -2.3444    0.4204 C   0  0  0  0  0  0  0  0  0  0  0  0
    2.1734   -1.9005    1.6010 O   0  0  0  0  0  0  0  0  0  0  0  0
    2.4317   -2.8674    2.5328 C   0  0  0  0  0  0  0  0  0  0  0  0
    3.4911   -2.5892    3.4028 C   0  0  0  0  0  0  0  0  0  0  0  0
    3.8639   -3.5170    4.3760 C   0  0  0  0  0  0  0  0  0  0  0  0
    3.1638   -4.7117    4.4828 C   0  0  0  0  0  0  0  0  0  0  0  0
    3.5253   -5.6098    5.4078 F   0  0  0  0  0  0  0  0  0  0  0  0
    2.0902   -4.9878    3.6442 C   0  0  0  0  0  0  0  0  0  0  0  0
    1.7163   -4.0599    2.6697 C   0  0  0  0  0  0  0  0  0  0  0  0
    2.4312   -0.2392   -0.3969 N   0  0  0  0  0  0  0  0  0  0  0  0
    2.5352    0.7767   -1.3680 O   0  0  0  0  0  0  0  0  0  0  0  0
    1.9303   -3.2873    0.0560 H   0  0  0  0  0  0  0  0  0  0  0  0
    0.4333   -2.4501    0.6250 H   0  0  0  0  0  0  0  0  0  0  0  0
    4.0391   -1.6545    3.3140 H   0  0  0  0  0  0  0  0  0  0  0  0
    4.6950   -3.3178    5.0451 H   0  0  0  0  0  0  0  0  0  0  0  0
    1.5508   -5.9234    3.7539 H   0  0  0  0  0  0  0  0  0  0  0  0
    0.8627   -4.2912    2.0402 H   0  0  0  0  0  0  0  0  0  0  0  0
    2.7138   -0.0261    0.5555 H   0  0  0  0  0  0  0  0  0  0  0  0
    1.9986    0.4178   -2.1075 H   0  0  0  0  0  0  0  0  0  0  0  0
  1  2  2  0  0  0  0
  2  3  1  0  0  0  0
  2 12  1  0  0  0  0
  3  4  1  0  0  0  0
  3 14  1  0  0  0  0
  3 15  1  0  0  0  0
  4  5  1  0  0  0  0
  5  6  1  0  0  0  0
  5 11  2  0  0  0  0
  6  7  2  0  0  0  0
  6 16  1  0  0  0  0
  7  8  1  0  0  0  0
  7 17  1  0  0  0  0
  8  9  1  0  0  0  0
  8 10  2  0  0  0  0
 10 11  1  0  0  0  0
 10 18  1  0  0  0  0
 11 19  1  0  0  0  0
 12 13  1  0  0  0  0
 12 20  1  0  0  0  0
 13 21  1  0  0  0  0
M  END
>  <Line_Number>
253


> <IC50>
18900

$$$$
