130841018.0
 OpenBabel09092522103D

 21 21  0  0  0  0  0  0  0  0999 V2000
    2.0873   -1.6320    0.6785 O   0  0  0  0  0  0  0  0  0  0  0  0
    1.7917   -0.8204   -0.1974 C   0  0  0  0  0  0  0  0  0  0  0  0
    2.4951   -0.7677   -1.5502 C   0  0  0  0  0  0  0  0  0  0  0  0
    1.9821    0.2788   -2.3716 O   0  0  0  0  0  0  0  0  0  0  0  0
    2.5253    0.3995   -3.6231 C   0  0  0  0  0  0  0  0  0  0  0  0
    3.5665   -0.3782   -4.1389 C   0  0  0  0  0  0  0  0  0  0  0  0
    4.0359   -0.1595   -5.4389 C   0  0  0  0  0  0  0  0  0  0  0  0
    3.4667    0.8368   -6.2275 C   0  0  0  0  0  0  0  0  0  0  0  0
    2.4340    1.6077   -5.7095 C   0  0  0  0  0  0  0  0  0  0  0  0
    1.8844    2.5660   -6.4669 F   0  0  0  0  0  0  0  0  0  0  0  0
    1.9611    1.3991   -4.4176 C   0  0  0  0  0  0  0  0  0  0  0  0
    0.7994    0.1064   -0.0276 N   0  0  0  0  0  0  0  0  0  0  0  0
    0.1287    0.1326    1.2109 O   0  0  0  0  0  0  0  0  0  0  0  0
    2.3331   -1.7392   -2.0313 H   0  0  0  0  0  0  0  0  0  0  0  0
    3.5589   -0.5980   -1.3475 H   0  0  0  0  0  0  0  0  0  0  0  0
    4.0399   -1.1647   -3.5594 H   0  0  0  0  0  0  0  0  0  0  0  0
    4.8455   -0.7690   -5.8332 H   0  0  0  0  0  0  0  0  0  0  0  0
    3.8197    1.0170   -7.2380 H   0  0  0  0  0  0  0  0  0  0  0  0
    1.1531    2.0196   -4.0437 H   0  0  0  0  0  0  0  0  0  0  0  0
    0.5706    0.8147   -0.7193 H   0  0  0  0  0  0  0  0  0  0  0  0
    0.5792   -0.5826    1.7105 H   0  0  0  0  0  0  0  0  0  0  0  0
  1  2  2  0  0  0  0
  2  3  1  0  0  0  0
  2 12  1  0  0  0  0
  3  4  1  0  0  0  0
  3 14  1  0  0  0  0
  3 15  1  0  0  0  0
  4  5  1  0  0  0  0
  5  6  1  0  0  0  0
  5 11  2  0  0  0  0
  6  7  2  0  0  0  0
  6 16  1  0  0  0  0
  7  8  1  0  0  0  0
  7 17  1  0  0  0  0
  8  9  2  0  0  0  0
  8 18  1  0  0  0  0
  9 10  1  0  0  0  0
  9 11  1  0  0  0  0
 11 19  1  0  0  0  0
 12 13  1  0  0  0  0
 12 20  1  0  0  0  0
 13 21  1  0  0  0  0
M  END
>  <Line_Number>
254


> <IC50>
27000

$$$$
