145985598.0
 OpenBabel09092522103D

 24 24  0  0  0  0  0  0  0  0999 V2000
    1.0835   -0.1045   -0.1118 O   0  0  0  0  0  0  0  0  0  0  0  0
    2.3197   -0.0653   -0.0619 C   0  0  0  0  0  0  0  0  0  0  0  0
    3.0683    0.0236    1.2515 C   0  0  0  0  0  0  0  0  0  0  0  0
    2.1045    0.0575    2.4292 C   0  0  0  0  0  0  0  0  0  0  0  0
    2.8526    0.1398    3.6519 O   0  0  0  0  0  0  0  0  0  0  0  0
    2.0909    0.1627    4.7929 C   0  0  0  0  0  0  0  0  0  0  0  0
    0.6944    0.1327    4.8101 C   0  0  0  0  0  0  0  0  0  0  0  0
    0.0166    0.1327    6.0215 C   0  0  0  0  0  0  0  0  0  0  0  0
   -1.3210    0.0884    6.0192 F   0  0  0  0  0  0  0  0  0  0  0  0
    0.6981    0.1620    7.2279 C   0  0  0  0  0  0  0  0  0  0  0  0
    2.0849    0.1826    7.2059 C   0  0  0  0  0  0  0  0  0  0  0  0
    2.7581    0.1994    8.3643 F   0  0  0  0  0  0  0  0  0  0  0  0
    2.7883    0.1831    6.0030 C   0  0  0  0  0  0  0  0  0  0  0  0
    3.0699   -0.1047   -1.1965 N   0  0  0  0  0  0  0  0  0  0  0  0
    2.5457   -0.1880   -2.4883 O   0  0  0  0  0  0  0  0  0  0  0  0
    3.6935    0.9238    1.2650 H   0  0  0  0  0  0  0  0  0  0  0  0
    3.7324   -0.8429    1.3568 H   0  0  0  0  0  0  0  0  0  0  0  0
    1.4961   -0.8584    2.4196 H   0  0  0  0  0  0  0  0  0  0  0  0
    1.4424    0.9308    2.3518 H   0  0  0  0  0  0  0  0  0  0  0  0
    0.1073    0.0812    3.9006 H   0  0  0  0  0  0  0  0  0  0  0  0
    0.1570    0.1598    8.1658 H   0  0  0  0  0  0  0  0  0  0  0  0
    3.8739    0.1841    6.0214 H   0  0  0  0  0  0  0  0  0  0  0  0
    4.0819   -0.0628   -1.1260 H   0  0  0  0  0  0  0  0  0  0  0  0
    1.5733   -0.2044   -2.3915 H   0  0  0  0  0  0  0  0  0  0  0  0
  1  2  2  0  0  0  0
  2  3  1  0  0  0  0
  2 14  1  0  0  0  0
  3  4  1  0  0  0  0
  3 16  1  0  0  0  0
  3 17  1  0  0  0  0
  4  5  1  0  0  0  0
  4 18  1  0  0  0  0
  4 19  1  0  0  0  0
  5  6  1  0  0  0  0
  6  7  1  0  0  0  0
  6 13  2  0  0  0  0
  7  8  2  0  0  0  0
  7 20  1  0  0  0  0
  8  9  1  0  0  0  0
  8 10  1  0  0  0  0
 10 11  2  0  0  0  0
 10 21  1  0  0  0  0
 11 12  1  0  0  0  0
 11 13  1  0  0  0  0
 13 22  1  0  0  0  0
 14 15  1  0  0  0  0
 14 23  1  0  0  0  0
 15 24  1  0  0  0  0
M  END
>  <Line_Number>
255


> <IC50>
5090

$$$$
