15125023.0
 OpenBabel09092522103D

 25 25  0  0  0  0  0  0  0  0999 V2000
    1.1918   -0.4074    0.3195 C   0  0  0  0  0  0  0  0  0  0  0  0
    2.3976    0.1677   -0.1678 O   0  0  0  0  0  0  0  0  0  0  0  0
    3.0221    1.0753    0.6409 C   0  0  0  0  0  0  0  0  0  0  0  0
    2.5758    1.5088    1.8898 C   0  0  0  0  0  0  0  0  0  0  0  0
    3.3252    2.4349    2.6282 C   0  0  0  0  0  0  0  0  0  0  0  0
    4.5236    2.9357    2.1192 C   0  0  0  0  0  0  0  0  0  0  0  0
    5.3232    3.8566    2.7351 O   0  0  0  0  0  0  0  0  0  0  0  0
    5.2744    3.8758    4.1598 C   0  0  0  0  0  0  0  0  0  0  0  0
    6.2424    4.9100    4.7236 C   0  0  0  0  0  0  0  0  0  0  0  0
    6.4379    5.0588    5.9284 O   0  0  0  0  0  0  0  0  0  0  0  0
    6.8654    5.6922    3.7850 N   0  0  0  0  0  0  0  0  0  0  0  0
    7.8124    6.6287    4.2500 O   0  0  0  0  0  0  0  0  0  0  0  0
    4.9533    2.5244    0.8580 C   0  0  0  0  0  0  0  0  0  0  0  0
    4.2120    1.5930    0.1275 C   0  0  0  0  0  0  0  0  0  0  0  0
    0.8627   -1.1579   -0.4057 H   0  0  0  0  0  0  0  0  0  0  0  0
    0.4046    0.3492    0.4005 H   0  0  0  0  0  0  0  0  0  0  0  0
    1.3496   -0.9185    1.2751 H   0  0  0  0  0  0  0  0  0  0  0  0
    1.6463    1.1498    2.3181 H   0  0  0  0  0  0  0  0  0  0  0  0
    2.9292    2.7571    3.5855 H   0  0  0  0  0  0  0  0  0  0  0  0
    5.5679    2.8966    4.5551 H   0  0  0  0  0  0  0  0  0  0  0  0
    4.2801    4.1629    4.5159 H   0  0  0  0  0  0  0  0  0  0  0  0
    6.8516    5.4729    2.7924 H   0  0  0  0  0  0  0  0  0  0  0  0
    7.7494    6.5243    5.2247 H   0  0  0  0  0  0  0  0  0  0  0  0
    5.8762    2.9191    0.4403 H   0  0  0  0  0  0  0  0  0  0  0  0
    4.5644    1.2704   -0.8480 H   0  0  0  0  0  0  0  0  0  0  0  0
  1  2  1  0  0  0  0
  1 15  1  0  0  0  0
  1 16  1  0  0  0  0
  1 17  1  0  0  0  0
  2  3  1  0  0  0  0
  3  4  1  0  0  0  0
  3 14  2  0  0  0  0
  4  5  2  0  0  0  0
  4 18  1  0  0  0  0
  5  6  1  0  0  0  0
  5 19  1  0  0  0  0
  6  7  1  0  0  0  0
  6 13  2  0  0  0  0
  7  8  1  0  0  0  0
  8  9  1  0  0  0  0
  8 20  1  0  0  0  0
  8 21  1  0  0  0  0
  9 10  2  0  0  0  0
  9 11  1  0  0  0  0
 11 12  1  0  0  0  0
 11 22  1  0  0  0  0
 12 23  1  0  0  0  0
 13 14  1  0  0  0  0
 13 24  1  0  0  0  0
 14 25  1  0  0  0  0
M  END
>  <Line_Number>
257


> <IC50>
49500

$$$$
