130842494.0
 OpenBabel09092522103D

 24 24  0  0  0  0  0  0  0  0999 V2000
    2.4537   -0.0426   -0.0114 C   0  0  0  0  0  0  0  0  0  0  0  0
    0.9542   -0.0151    0.0027 C   0  0  0  0  0  0  0  0  0  0  0  0
    0.2564    1.1967    0.0099 C   0  0  0  0  0  0  0  0  0  0  0  0
   -1.1387    1.2032    0.0181 C   0  0  0  0  0  0  0  0  0  0  0  0
   -1.8499    0.0017    0.0272 C   0  0  0  0  0  0  0  0  0  0  0  0
   -1.1671   -1.2136    0.0284 C   0  0  0  0  0  0  0  0  0  0  0  0
   -1.7510   -2.4503   -0.0012 O   0  0  0  0  0  0  0  0  0  0  0  0
   -3.0402   -2.5465    0.6017 C   0  0  0  0  0  0  0  0  0  0  0  0
   -3.5604   -3.9796    0.5501 C   0  0  0  0  0  0  0  0  0  0  0  0
   -4.6502   -4.3124    1.0180 O   0  0  0  0  0  0  0  0  0  0  0  0
   -2.7335   -4.8777   -0.0689 N   0  0  0  0  0  0  0  0  0  0  0  0
   -3.1886   -6.2050   -0.1977 O   0  0  0  0  0  0  0  0  0  0  0  0
    0.2305   -1.2155    0.0015 C   0  0  0  0  0  0  0  0  0  0  0  0
    2.8745    0.9684    0.0049 H   0  0  0  0  0  0  0  0  0  0  0  0
    2.8137   -0.5418   -0.9169 H   0  0  0  0  0  0  0  0  0  0  0  0
    2.8288   -0.5753    0.8677 H   0  0  0  0  0  0  0  0  0  0  0  0
    0.7927    2.1430    0.0027 H   0  0  0  0  0  0  0  0  0  0  0  0
   -1.6730    2.1500    0.0086 H   0  0  0  0  0  0  0  0  0  0  0  0
   -2.9350    0.0520    0.0107 H   0  0  0  0  0  0  0  0  0  0  0  0
   -3.7712   -1.9365    0.0614 H   0  0  0  0  0  0  0  0  0  0  0  0
   -2.9826   -2.2527    1.6561 H   0  0  0  0  0  0  0  0  0  0  0  0
   -1.8657   -4.6137   -0.5269 H   0  0  0  0  0  0  0  0  0  0  0  0
   -4.0685   -6.1682    0.2372 H   0  0  0  0  0  0  0  0  0  0  0  0
    0.7617   -2.1647   -0.0121 H   0  0  0  0  0  0  0  0  0  0  0  0
  1  2  1  0  0  0  0
  1 14  1  0  0  0  0
  1 15  1  0  0  0  0
  1 16  1  0  0  0  0
  2  3  1  0  0  0  0
  2 13  2  0  0  0  0
  3  4  2  0  0  0  0
  3 17  1  0  0  0  0
  4  5  1  0  0  0  0
  4 18  1  0  0  0  0
  5  6  2  0  0  0  0
  5 19  1  0  0  0  0
  6  7  1  0  0  0  0
  6 13  1  0  0  0  0
  7  8  1  0  0  0  0
  8  9  1  0  0  0  0
  8 20  1  0  0  0  0
  8 21  1  0  0  0  0
  9 10  2  0  0  0  0
  9 11  1  0  0  0  0
 11 12  1  0  0  0  0
 11 22  1  0  0  0  0
 12 23  1  0  0  0  0
 13 24  1  0  0  0  0
M  END
>  <Line_Number>
259


> <IC50>
85100

$$$$
