145982738.0
 OpenBabel09092522103D

 21 21  0  0  0  0  0  0  0  0999 V2000
    2.3899    1.4416    0.0421 O   0  0  0  0  0  0  0  0  0  0  0  0
    1.9481    0.3537    0.4122 C   0  0  0  0  0  0  0  0  0  0  0  0
    2.6178   -0.4855    1.4954 C   0  0  0  0  0  0  0  0  0  0  0  0
    2.0332   -1.7826    1.5497 O   0  0  0  0  0  0  0  0  0  0  0  0
    2.4521   -2.6456    2.5294 C   0  0  0  0  0  0  0  0  0  0  0  0
    3.5268   -2.3940    3.3914 C   0  0  0  0  0  0  0  0  0  0  0  0
    3.8880   -3.3331    4.3594 C   0  0  0  0  0  0  0  0  0  0  0  0
    3.1825   -4.5293    4.4752 C   0  0  0  0  0  0  0  0  0  0  0  0
    2.1116   -4.7958    3.6193 C   0  0  0  0  0  0  0  0  0  0  0  0
    1.2861   -6.3018    3.8248 Cl  0  0  0  0  0  0  0  0  0  0  0  0
    1.7442   -3.8596    2.6428 C   0  0  0  0  0  0  0  0  0  0  0  0
    0.4162   -4.1709    1.5644 Cl  0  0  0  0  0  0  0  0  0  0  0  0
    0.7970   -0.1838   -0.1077 N   0  0  0  0  0  0  0  0  0  0  0  0
    0.2229    0.4950   -1.2051 O   0  0  0  0  0  0  0  0  0  0  0  0
    2.4847    0.0411    2.4471 H   0  0  0  0  0  0  0  0  0  0  0  0
    3.6781   -0.5669    1.2304 H   0  0  0  0  0  0  0  0  0  0  0  0
    4.1090   -1.4798    3.3341 H   0  0  0  0  0  0  0  0  0  0  0  0
    4.7247   -3.1308    5.0265 H   0  0  0  0  0  0  0  0  0  0  0  0
    3.4734   -5.2524    5.2342 H   0  0  0  0  0  0  0  0  0  0  0  0
    0.5734   -1.1704    0.0050 H   0  0  0  0  0  0  0  0  0  0  0  0
    0.8328    1.2543   -1.3298 H   0  0  0  0  0  0  0  0  0  0  0  0
  1  2  2  0  0  0  0
  2  3  1  0  0  0  0
  2 13  1  0  0  0  0
  3  4  1  0  0  0  0
  3 15  1  0  0  0  0
  3 16  1  0  0  0  0
  4  5  1  0  0  0  0
  5  6  1  0  0  0  0
  5 11  2  0  0  0  0
  6  7  2  0  0  0  0
  6 17  1  0  0  0  0
  7  8  1  0  0  0  0
  7 18  1  0  0  0  0
  8  9  2  0  0  0  0
  8 19  1  0  0  0  0
  9 10  1  0  0  0  0
  9 11  1  0  0  0  0
 11 12  1  0  0  0  0
 13 14  1  0  0  0  0
 13 20  1  0  0  0  0
 14 21  1  0  0  0  0
M  END
>  <Line_Number>
261


> <IC50>
178700

$$$$
