145950756.0
 OpenBabel09092522103D

 22 22  0  0  0  0  0  0  0  0999 V2000
    2.5423    1.2619   -0.2900 O   0  0  0  0  0  0  0  0  0  0  0  0
    2.1954    0.1127   -0.0186 C   0  0  0  0  0  0  0  0  0  0  0  0
    3.0036   -1.1254   -0.4127 C   0  0  0  0  0  0  0  0  0  0  0  0
    2.1810   -2.3486   -0.3920 N   0  0  0  0  0  0  0  0  0  0  0  0
    2.7271   -3.5939   -0.8041 C   0  0  0  0  0  0  0  0  0  0  0  0
    4.0390   -4.0611   -0.5575 C   0  0  0  0  0  0  0  0  0  0  0  0
    5.2755   -3.1616    0.2538 Cl  0  0  0  0  0  0  0  0  0  0  0  0
    4.4371   -5.3574   -0.9389 C   0  0  0  0  0  0  0  0  0  0  0  0
    3.5436   -6.2374   -1.5395 C   0  0  0  0  0  0  0  0  0  0  0  0
    2.2378   -5.8284   -1.7576 C   0  0  0  0  0  0  0  0  0  0  0  0
    1.8380   -4.5385   -1.3892 C   0  0  0  0  0  0  0  0  0  0  0  0
    0.1817   -4.1109   -1.6993 Cl  0  0  0  0  0  0  0  0  0  0  0  0
    1.0855   -0.1525    0.7502 N   0  0  0  0  0  0  0  0  0  0  0  0
    0.4572    0.9644    1.3441 O   0  0  0  0  0  0  0  0  0  0  0  0
    3.7866   -1.1614    0.3435 H   0  0  0  0  0  0  0  0  0  0  0  0
    3.4271   -0.9653   -1.4099 H   0  0  0  0  0  0  0  0  0  0  0  0
    1.3094   -2.1986   -0.9155 H   0  0  0  0  0  0  0  0  0  0  0  0
    5.4556   -5.6909   -0.7485 H   0  0  0  0  0  0  0  0  0  0  0  0
    3.8651   -7.2369   -1.8190 H   0  0  0  0  0  0  0  0  0  0  0  0
    1.5279   -6.5208   -2.2090 H   0  0  0  0  0  0  0  0  0  0  0  0
    0.9706   -1.0575    1.2008 H   0  0  0  0  0  0  0  0  0  0  0  0
    1.0384    1.7081    1.0712 H   0  0  0  0  0  0  0  0  0  0  0  0
  1  2  2  0  0  0  0
  2  3  1  0  0  0  0
  2 13  1  0  0  0  0
  3  4  1  0  0  0  0
  3 15  1  0  0  0  0
  3 16  1  0  0  0  0
  4  5  1  0  0  0  0
  4 17  1  0  0  0  0
  5  6  1  0  0  0  0
  5 11  2  0  0  0  0
  6  7  1  0  0  0  0
  6  8  2  0  0  0  0
  8  9  1  0  0  0  0
  8 18  1  0  0  0  0
  9 10  2  0  0  0  0
  9 19  1  0  0  0  0
 10 11  1  0  0  0  0
 10 20  1  0  0  0  0
 11 12  1  0  0  0  0
 13 14  1  0  0  0  0
 13 21  1  0  0  0  0
 14 22  1  0  0  0  0
M  END
>  <Line_Number>
265


> <IC50>
191000

$$$$
