145952401.0
 OpenBabel09092522103D

 22 22  0  0  0  0  0  0  0  0999 V2000
    2.5077    0.4144   -1.2578 O   0  0  0  0  0  0  0  0  0  0  0  0
    2.1445    0.0545   -0.1380 C   0  0  0  0  0  0  0  0  0  0  0  0
    2.9181   -0.9572    0.7078 C   0  0  0  0  0  0  0  0  0  0  0  0
    2.0851   -1.5413    1.7782 N   0  0  0  0  0  0  0  0  0  0  0  0
    2.7099   -2.4712    2.6422 C   0  0  0  0  0  0  0  0  0  0  0  0
    4.0537   -2.3449    3.0275 C   0  0  0  0  0  0  0  0  0  0  0  0
    4.6413   -3.2327    3.9362 C   0  0  0  0  0  0  0  0  0  0  0  0
    3.8872   -4.2498    4.5106 C   0  0  0  0  0  0  0  0  0  0  0  0
    2.5395   -4.3743    4.1834 C   0  0  0  0  0  0  0  0  0  0  0  0
    1.9570   -3.4868    3.2708 C   0  0  0  0  0  0  0  0  0  0  0  0
    0.1086   -3.7179    2.8756 Br  0  0  0  0  0  0  0  0  0  0  0  0
    1.0465    0.5995    0.4825 N   0  0  0  0  0  0  0  0  0  0  0  0
    0.4312    1.6908   -0.1710 O   0  0  0  0  0  0  0  0  0  0  0  0
    3.7599   -0.3988    1.1256 H   0  0  0  0  0  0  0  0  0  0  0  0
    3.2828   -1.7490    0.0443 H   0  0  0  0  0  0  0  0  0  0  0  0
    1.2335   -1.9675    1.4004 H   0  0  0  0  0  0  0  0  0  0  0  0
    4.6806   -1.5487    2.6396 H   0  0  0  0  0  0  0  0  0  0  0  0
    5.6899   -3.1174    4.2011 H   0  0  0  0  0  0  0  0  0  0  0  0
    4.3441   -4.9337    5.2202 H   0  0  0  0  0  0  0  0  0  0  0  0
    1.9489   -5.1585    4.6500 H   0  0  0  0  0  0  0  0  0  0  0  0
    0.9039    0.4988    1.4853 H   0  0  0  0  0  0  0  0  0  0  0  0
    1.0036    1.8179   -0.9591 H   0  0  0  0  0  0  0  0  0  0  0  0
  1  2  2  0  0  0  0
  2  3  1  0  0  0  0
  2 12  1  0  0  0  0
  3  4  1  0  0  0  0
  3 14  1  0  0  0  0
  3 15  1  0  0  0  0
  4  5  1  0  0  0  0
  4 16  1  0  0  0  0
  5  6  1  0  0  0  0
  5 10  2  0  0  0  0
  6  7  2  0  0  0  0
  6 17  1  0  0  0  0
  7  8  1  0  0  0  0
  7 18  1  0  0  0  0
  8  9  2  0  0  0  0
  8 19  1  0  0  0  0
  9 10  1  0  0  0  0
  9 20  1  0  0  0  0
 10 11  1  0  0  0  0
 12 13  1  0  0  0  0
 12 21  1  0  0  0  0
 13 22  1  0  0  0  0
M  END
>  <Line_Number>
267


> <IC50>
12300

$$$$
