145953083.0
 OpenBabel09092522103D

 22 22  0  0  0  0  0  0  0  0999 V2000
    2.4638   -0.8911    0.8648 O   0  0  0  0  0  0  0  0  0  0  0  0
    2.1467   -0.0752   -0.0001 C   0  0  0  0  0  0  0  0  0  0  0  0
    2.9261    1.2101   -0.2706 C   0  0  0  0  0  0  0  0  0  0  0  0
    2.0194    2.2955   -0.7070 N   0  0  0  0  0  0  0  0  0  0  0  0
    2.6186    3.5338   -1.0138 C   0  0  0  0  0  0  0  0  0  0  0  0
    1.9162    4.4055   -1.8581 C   0  0  0  0  0  0  0  0  0  0  0  0
    2.3949    5.6901   -2.1368 C   0  0  0  0  0  0  0  0  0  0  0  0
    3.5716    6.1289   -1.5400 C   0  0  0  0  0  0  0  0  0  0  0  0
    4.2247    7.8649   -1.8996 Br  0  0  0  0  0  0  0  0  0  0  0  0
    4.2641    5.2977   -0.6656 C   0  0  0  0  0  0  0  0  0  0  0  0
    3.7829    4.0114   -0.3986 C   0  0  0  0  0  0  0  0  0  0  0  0
    1.0657   -0.2672   -0.8250 N   0  0  0  0  0  0  0  0  0  0  0  0
    0.2186   -1.3508   -0.4999 O   0  0  0  0  0  0  0  0  0  0  0  0
    3.6716    0.9963   -1.0449 H   0  0  0  0  0  0  0  0  0  0  0  0
    3.4250    1.4758    0.6674 H   0  0  0  0  0  0  0  0  0  0  0  0
    1.3209    2.4754    0.0195 H   0  0  0  0  0  0  0  0  0  0  0  0
    0.9885    4.0768   -2.3221 H   0  0  0  0  0  0  0  0  0  0  0  0
    1.8394    6.3356   -2.8115 H   0  0  0  0  0  0  0  0  0  0  0  0
    5.1712    5.6408   -0.1743 H   0  0  0  0  0  0  0  0  0  0  0  0
    4.3380    3.4088    0.3134 H   0  0  0  0  0  0  0  0  0  0  0  0
    0.6651    0.5168   -1.3348 H   0  0  0  0  0  0  0  0  0  0  0  0
    0.6790   -1.7586    0.2665 H   0  0  0  0  0  0  0  0  0  0  0  0
  1  2  2  0  0  0  0
  2  3  1  0  0  0  0
  2 12  1  0  0  0  0
  3  4  1  0  0  0  0
  3 14  1  0  0  0  0
  3 15  1  0  0  0  0
  4  5  1  0  0  0  0
  4 16  1  0  0  0  0
  5  6  1  0  0  0  0
  5 11  2  0  0  0  0
  6  7  2  0  0  0  0
  6 17  1  0  0  0  0
  7  8  1  0  0  0  0
  7 18  1  0  0  0  0
  8  9  1  0  0  0  0
  8 10  2  0  0  0  0
 10 11  1  0  0  0  0
 10 19  1  0  0  0  0
 11 20  1  0  0  0  0
 12 13  1  0  0  0  0
 12 21  1  0  0  0  0
 13 22  1  0  0  0  0
M  END
>  <Line_Number>
268


> <IC50>
2010

$$$$
