145951218.0
 OpenBabel09092522103D

 29 29  0  0  0  0  0  0  0  0999 V2000
    1.0410   -0.3174   -0.4647 C   0  0  0  0  0  0  0  0  0  0  0  0
    2.3843   -0.0977   -0.0616 O   0  0  0  0  0  0  0  0  0  0  0  0
    3.1252   -1.1827    0.3317 C   0  0  0  0  0  0  0  0  0  0  0  0
    2.8441   -2.4745   -0.1423 C   0  0  0  0  0  0  0  0  0  0  0  0
    3.6453   -3.5580    0.2133 C   0  0  0  0  0  0  0  0  0  0  0  0
    4.7450   -3.3596    1.0357 C   0  0  0  0  0  0  0  0  0  0  0  0
    5.0296   -2.0797    1.5185 C   0  0  0  0  0  0  0  0  0  0  0  0
    4.2207   -0.9677    1.2064 C   0  0  0  0  0  0  0  0  0  0  0  0
    4.6534    0.2759    1.7276 N   0  0  0  0  0  0  0  0  0  0  0  0
    3.8070    1.4556    1.5511 C   0  0  0  0  0  0  0  0  0  0  0  0
    4.3939    2.6774    2.2456 C   0  0  0  0  0  0  0  0  0  0  0  0
    3.4904    3.8654    2.0130 C   0  0  0  0  0  0  0  0  0  0  0  0
    2.4454    3.8354    1.3620 O   0  0  0  0  0  0  0  0  0  0  0  0
    3.9165    5.0251    2.6143 N   0  0  0  0  0  0  0  0  0  0  0  0
    3.1462    6.1739    2.3127 O   0  0  0  0  0  0  0  0  0  0  0  0
    0.5608    0.6620   -0.5568 H   0  0  0  0  0  0  0  0  0  0  0  0
    0.4877   -0.8922    0.2851 H   0  0  0  0  0  0  0  0  0  0  0  0
    0.9988   -0.7964   -1.4470 H   0  0  0  0  0  0  0  0  0  0  0  0
    2.0157   -2.6603   -0.8175 H   0  0  0  0  0  0  0  0  0  0  0  0
    3.4210   -4.5487   -0.1729 H   0  0  0  0  0  0  0  0  0  0  0  0
    5.3921   -4.1948    1.2910 H   0  0  0  0  0  0  0  0  0  0  0  0
    5.9128   -1.9479    2.1396 H   0  0  0  0  0  0  0  0  0  0  0  0
    4.9831    0.1520    2.6819 H   0  0  0  0  0  0  0  0  0  0  0  0
    2.8082    1.2650    1.9617 H   0  0  0  0  0  0  0  0  0  0  0  0
    3.7316    1.6944    0.4844 H   0  0  0  0  0  0  0  0  0  0  0  0
    5.3909    2.9041    1.8463 H   0  0  0  0  0  0  0  0  0  0  0  0
    4.4890    2.5043    3.3235 H   0  0  0  0  0  0  0  0  0  0  0  0
    4.8732    5.1838    2.9114 H   0  0  0  0  0  0  0  0  0  0  0  0
    2.4413    5.8088    1.7327 H   0  0  0  0  0  0  0  0  0  0  0  0
  1  2  1  0  0  0  0
  1 16  1  0  0  0  0
  1 17  1  0  0  0  0
  1 18  1  0  0  0  0
  2  3  1  0  0  0  0
  3  4  1  0  0  0  0
  3  8  2  0  0  0  0
  4  5  2  0  0  0  0
  4 19  1  0  0  0  0
  5  6  1  0  0  0  0
  5 20  1  0  0  0  0
  6  7  2  0  0  0  0
  6 21  1  0  0  0  0
  7  8  1  0  0  0  0
  7 22  1  0  0  0  0
  8  9  1  0  0  0  0
  9 10  1  0  0  0  0
  9 23  1  0  0  0  0
 10 11  1  0  0  0  0
 10 24  1  0  0  0  0
 10 25  1  0  0  0  0
 11 12  1  0  0  0  0
 11 26  1  0  0  0  0
 11 27  1  0  0  0  0
 12 13  2  0  0  0  0
 12 14  1  0  0  0  0
 14 15  1  0  0  0  0
 14 28  1  0  0  0  0
 15 29  1  0  0  0  0
M  END
>  <Line_Number>
271


> <IC50>
1640

$$$$
