130005353.0
 OpenBabel09092522103D

 22 22  0  0  0  0  0  0  0  0999 V2000
    2.3655   -1.0360   -0.3773 O   0  0  0  0  0  0  0  0  0  0  0  0
    2.1322    0.1557   -0.1815 C   0  0  0  0  0  0  0  0  0  0  0  0
    2.8991    1.0168    0.8202 C   0  0  0  0  0  0  0  0  0  0  0  0
    1.9902    1.9747    1.4867 N   0  0  0  0  0  0  0  0  0  0  0  0
    2.5590    2.8167    2.4621 C   0  0  0  0  0  0  0  0  0  0  0  0
    3.8709    3.3033    2.3874 C   0  0  0  0  0  0  0  0  0  0  0  0
    4.3762    4.1805    3.3531 C   0  0  0  0  0  0  0  0  0  0  0  0
    3.5631    4.6156    4.3964 C   0  0  0  0  0  0  0  0  0  0  0  0
    2.2427    4.1847    4.4532 C   0  0  0  0  0  0  0  0  0  0  0  0
    1.2217    4.7353    5.7251 Cl  0  0  0  0  0  0  0  0  0  0  0  0
    1.7378    3.3103    3.4871 C   0  0  0  0  0  0  0  0  0  0  0  0
    1.1807    0.8456   -0.8938 N   0  0  0  0  0  0  0  0  0  0  0  0
    0.3516    0.0802   -1.7434 O   0  0  0  0  0  0  0  0  0  0  0  0
    3.6831    1.5300    0.2546 H   0  0  0  0  0  0  0  0  0  0  0  0
    3.3493    0.3527    1.5661 H   0  0  0  0  0  0  0  0  0  0  0  0
    1.1830    1.4897    1.8833 H   0  0  0  0  0  0  0  0  0  0  0  0
    4.5340    3.0181    1.5769 H   0  0  0  0  0  0  0  0  0  0  0  0
    5.4022    4.5314    3.2834 H   0  0  0  0  0  0  0  0  0  0  0  0
    3.9584    5.2950    5.1466 H   0  0  0  0  0  0  0  0  0  0  0  0
    0.6960    3.0064    3.5462 H   0  0  0  0  0  0  0  0  0  0  0  0
    0.8279    1.7402   -0.5604 H   0  0  0  0  0  0  0  0  0  0  0  0
    0.7131   -0.8267   -1.6352 H   0  0  0  0  0  0  0  0  0  0  0  0
  1  2  2  0  0  0  0
  2  3  1  0  0  0  0
  2 12  1  0  0  0  0
  3  4  1  0  0  0  0
  3 14  1  0  0  0  0
  3 15  1  0  0  0  0
  4  5  1  0  0  0  0
  4 16  1  0  0  0  0
  5  6  1  0  0  0  0
  5 11  2  0  0  0  0
  6  7  2  0  0  0  0
  6 17  1  0  0  0  0
  7  8  1  0  0  0  0
  7 18  1  0  0  0  0
  8  9  2  0  0  0  0
  8 19  1  0  0  0  0
  9 10  1  0  0  0  0
  9 11  1  0  0  0  0
 11 20  1  0  0  0  0
 12 13  1  0  0  0  0
 12 21  1  0  0  0  0
 13 22  1  0  0  0  0
M  END
>  <Line_Number>
273


> <IC50>
1150

$$$$
