145959103.0
 OpenBabel09092522103D

 25 25  0  0  0  0  0  0  0  0999 V2000
    1.0891   -0.2610   -0.2530 O   0  0  0  0  0  0  0  0  0  0  0  0
    2.2607    0.0840   -0.1286 C   0  0  0  0  0  0  0  0  0  0  0  0
    2.9582    0.3112    1.1906 C   0  0  0  0  0  0  0  0  0  0  0  0
    2.0390   -0.0129    2.3616 C   0  0  0  0  0  0  0  0  0  0  0  0
    2.7261    0.2688    3.6226 N   0  0  0  0  0  0  0  0  0  0  0  0
    2.0984   -0.0021    4.8435 C   0  0  0  0  0  0  0  0  0  0  0  0
    0.7643   -0.4068    4.9684 C   0  0  0  0  0  0  0  0  0  0  0  0
    0.1792   -0.5969    6.2264 C   0  0  0  0  0  0  0  0  0  0  0  0
    0.9088   -0.3490    7.3842 C   0  0  0  0  0  0  0  0  0  0  0  0
    2.2262    0.0855    7.2837 C   0  0  0  0  0  0  0  0  0  0  0  0
    2.8094    0.2608    6.0247 C   0  0  0  0  0  0  0  0  0  0  0  0
    3.0759    0.2954   -1.2177 N   0  0  0  0  0  0  0  0  0  0  0  0
    2.4713    0.1766   -2.4888 O   0  0  0  0  0  0  0  0  0  0  0  0
    3.2806    1.3583    1.2383 H   0  0  0  0  0  0  0  0  0  0  0  0
    3.8533   -0.3199    1.2281 H   0  0  0  0  0  0  0  0  0  0  0  0
    1.7416   -1.0681    2.3152 H   0  0  0  0  0  0  0  0  0  0  0  0
    1.1332    0.6026    2.2933 H   0  0  0  0  0  0  0  0  0  0  0  0
    3.7023   -0.0160    3.6472 H   0  0  0  0  0  0  0  0  0  0  0  0
    0.1523   -0.5983    4.0928 H   0  0  0  0  0  0  0  0  0  0  0  0
   -0.8540   -0.9294    6.2951 H   0  0  0  0  0  0  0  0  0  0  0  0
    0.4490   -0.4834    8.3597 H   0  0  0  0  0  0  0  0  0  0  0  0
    2.7976    0.3034    8.1813 H   0  0  0  0  0  0  0  0  0  0  0  0
    3.8321    0.6256    5.9709 H   0  0  0  0  0  0  0  0  0  0  0  0
    3.9859    0.7422   -1.1802 H   0  0  0  0  0  0  0  0  0  0  0  0
    1.5443   -0.0558   -2.2618 H   0  0  0  0  0  0  0  0  0  0  0  0
  1  2  2  0  0  0  0
  2  3  1  0  0  0  0
  2 12  1  0  0  0  0
  3  4  1  0  0  0  0
  3 14  1  0  0  0  0
  3 15  1  0  0  0  0
  4  5  1  0  0  0  0
  4 16  1  0  0  0  0
  4 17  1  0  0  0  0
  5  6  1  0  0  0  0
  5 18  1  0  0  0  0
  6  7  1  0  0  0  0
  6 11  2  0  0  0  0
  7  8  2  0  0  0  0
  7 19  1  0  0  0  0
  8  9  1  0  0  0  0
  8 20  1  0  0  0  0
  9 10  2  0  0  0  0
  9 21  1  0  0  0  0
 10 11  1  0  0  0  0
 10 22  1  0  0  0  0
 11 23  1  0  0  0  0
 12 13  1  0  0  0  0
 12 24  1  0  0  0  0
 13 25  1  0  0  0  0
M  END
>  <Line_Number>
276


> <IC50>
1220

$$$$
