145956167.0
 OpenBabel09092522103D

 25 25  0  0  0  0  0  0  0  0999 V2000
    1.0519    0.0225   -0.0589 O   0  0  0  0  0  0  0  0  0  0  0  0
    2.2745    0.0148    0.0803 C   0  0  0  0  0  0  0  0  0  0  0  0
    3.0445    1.1189    0.8016 C   0  0  0  0  0  0  0  0  0  0  0  0
    2.1082    2.2081    1.3170 C   0  0  0  0  0  0  0  0  0  0  0  0
    2.8819    3.2570    1.9948 N   0  0  0  0  0  0  0  0  0  0  0  0
    2.1732    4.3441    2.5361 C   0  0  0  0  0  0  0  0  0  0  0  0
    0.8685    4.2329    3.0329 C   0  0  0  0  0  0  0  0  0  0  0  0
    0.2359    5.3186    3.6435 C   0  0  0  0  0  0  0  0  0  0  0  0
   -1.3712    5.1409    4.2354 Cl  0  0  0  0  0  0  0  0  0  0  0  0
    0.8922    6.5339    3.7887 C   0  0  0  0  0  0  0  0  0  0  0  0
    2.1959    6.6507    3.3230 C   0  0  0  0  0  0  0  0  0  0  0  0
    3.0279    8.1485    3.4926 Cl  0  0  0  0  0  0  0  0  0  0  0  0
    2.8393    5.5652    2.7202 C   0  0  0  0  0  0  0  0  0  0  0  0
    3.0768   -0.9780   -0.4050 N   0  0  0  0  0  0  0  0  0  0  0  0
    2.5115   -2.0704   -1.1010 O   0  0  0  0  0  0  0  0  0  0  0  0
    3.7748    1.5555    0.1075 H   0  0  0  0  0  0  0  0  0  0  0  0
    3.5998    0.6802    1.6406 H   0  0  0  0  0  0  0  0  0  0  0  0
    1.3880    1.7501    2.0042 H   0  0  0  0  0  0  0  0  0  0  0  0
    1.5516    2.6518    0.4825 H   0  0  0  0  0  0  0  0  0  0  0  0
    3.6709    3.5814    1.4378 H   0  0  0  0  0  0  0  0  0  0  0  0
    0.3233    3.2976    2.9613 H   0  0  0  0  0  0  0  0  0  0  0  0
    0.3978    7.3725    4.2686 H   0  0  0  0  0  0  0  0  0  0  0  0
    3.8665    5.6822    2.3840 H   0  0  0  0  0  0  0  0  0  0  0  0
    4.0745   -1.0055   -0.2891 H   0  0  0  0  0  0  0  0  0  0  0  0
    1.5533   -1.8616   -1.1584 H   0  0  0  0  0  0  0  0  0  0  0  0
  1  2  2  0  0  0  0
  2  3  1  0  0  0  0
  2 14  1  0  0  0  0
  3  4  1  0  0  0  0
  3 16  1  0  0  0  0
  3 17  1  0  0  0  0
  4  5  1  0  0  0  0
  4 18  1  0  0  0  0
  4 19  1  0  0  0  0
  5  6  1  0  0  0  0
  5 20  1  0  0  0  0
  6  7  1  0  0  0  0
  6 13  2  0  0  0  0
  7  8  2  0  0  0  0
  7 21  1  0  0  0  0
  8  9  1  0  0  0  0
  8 10  1  0  0  0  0
 10 11  2  0  0  0  0
 10 22  1  0  0  0  0
 11 12  1  0  0  0  0
 11 13  1  0  0  0  0
 13 23  1  0  0  0  0
 14 15  1  0  0  0  0
 14 24  1  0  0  0  0
 15 25  1  0  0  0  0
M  END
>  <Line_Number>
277


> <IC50>
1971

$$$$
