145949441.0
 OpenBabel09092522103D

 22 22  0  0  0  0  0  0  0  0999 V2000
    2.5038   -0.4630   -1.1267 O   0  0  0  0  0  0  0  0  0  0  0  0
    2.2365    0.1769   -0.1115 C   0  0  0  0  0  0  0  0  0  0  0  0
    2.9949    0.0285    1.2076 C   0  0  0  0  0  0  0  0  0  0  0  0
    2.0784    0.1877    2.3539 N   0  0  0  0  0  0  0  0  0  0  0  0
    2.6098    0.0537    3.6592 C   0  0  0  0  0  0  0  0  0  0  0  0
    3.9117    0.4684    3.9754 C   0  0  0  0  0  0  0  0  0  0  0  0
    4.3969    0.4066    5.2859 C   0  0  0  0  0  0  0  0  0  0  0  0
    3.5756   -0.0447    6.3150 C   0  0  0  0  0  0  0  0  0  0  0  0
    2.2632   -0.4267    6.0412 C   0  0  0  0  0  0  0  0  0  0  0  0
    1.2950   -0.9561    7.3731 Cl  0  0  0  0  0  0  0  0  0  0  0  0
    1.7749   -0.3695    4.7253 C   0  0  0  0  0  0  0  0  0  0  0  0
    0.1408   -0.8460    4.3625 Cl  0  0  0  0  0  0  0  0  0  0  0  0
    1.2525    1.1362   -0.0826 N   0  0  0  0  0  0  0  0  0  0  0  0
    0.4318    1.2335   -1.2276 O   0  0  0  0  0  0  0  0  0  0  0  0
    3.7743    0.7970    1.2057 H   0  0  0  0  0  0  0  0  0  0  0  0
    3.4512   -0.9668    1.2307 H   0  0  0  0  0  0  0  0  0  0  0  0
    1.2632   -0.4294    2.2724 H   0  0  0  0  0  0  0  0  0  0  0  0
    4.5798    0.8633    3.2130 H   0  0  0  0  0  0  0  0  0  0  0  0
    5.4143    0.7245    5.5017 H   0  0  0  0  0  0  0  0  0  0  0  0
    3.9627   -0.0838    7.3312 H   0  0  0  0  0  0  0  0  0  0  0  0
    0.8782    1.4724    0.8020 H   0  0  0  0  0  0  0  0  0  0  0  0
    0.8090    0.5484   -1.8216 H   0  0  0  0  0  0  0  0  0  0  0  0
  1  2  2  0  0  0  0
  2  3  1  0  0  0  0
  2 13  1  0  0  0  0
  3  4  1  0  0  0  0
  3 15  1  0  0  0  0
  3 16  1  0  0  0  0
  4  5  1  0  0  0  0
  4 17  1  0  0  0  0
  5  6  1  0  0  0  0
  5 11  2  0  0  0  0
  6  7  2  0  0  0  0
  6 18  1  0  0  0  0
  7  8  1  0  0  0  0
  7 19  1  0  0  0  0
  8  9  2  0  0  0  0
  8 20  1  0  0  0  0
  9 10  1  0  0  0  0
  9 11  1  0  0  0  0
 11 12  1  0  0  0  0
 13 14  1  0  0  0  0
 13 21  1  0  0  0  0
 14 22  1  0  0  0  0
M  END
>  <Line_Number>
278


> <IC50>
14800

$$$$
