20035378.0
 OpenBabel09092522103D

 33 33  0  0  0  0  0  0  0  0999 V2000
    1.0162    0.1901    0.1342 C   0  0  0  0  0  0  0  0  0  0  0  0
    2.5360    0.1562    0.1089 C   0  0  0  0  0  0  0  0  0  0  0  0
    3.0855   -0.7289    1.2246 C   0  0  0  0  0  0  0  0  0  0  0  0
    4.6144   -0.7713    1.2101 C   0  0  0  0  0  0  0  0  0  0  0  0
    5.1324   -1.6641    2.3351 C   0  0  0  0  0  0  0  0  0  0  0  0
    6.6607   -1.7315    2.3599 C   0  0  0  0  0  0  0  0  0  0  0  0
    7.1181   -2.6353    3.4780 C   0  0  0  0  0  0  0  0  0  0  0  0
    7.3731   -2.1034    4.7561 C   0  0  0  0  0  0  0  0  0  0  0  0
    7.7043   -2.9381    5.8315 C   0  0  0  0  0  0  0  0  0  0  0  0
    7.7742   -4.3116    5.6300 C   0  0  0  0  0  0  0  0  0  0  0  0
    8.0644   -5.1797    6.6461 O   0  0  0  0  0  0  0  0  0  0  0  0
    7.5332   -4.8456    4.3712 C   0  0  0  0  0  0  0  0  0  0  0  0
    7.5843   -6.1998    4.1682 O   0  0  0  0  0  0  0  0  0  0  0  0
    7.2119   -4.0171    3.3017 C   0  0  0  0  0  0  0  0  0  0  0  0
    6.9641   -4.5788    2.0802 O   0  0  0  0  0  0  0  0  0  0  0  0
    0.6372    0.8302   -0.6679 H   0  0  0  0  0  0  0  0  0  0  0  0
    0.6490    0.5849    1.0873 H   0  0  0  0  0  0  0  0  0  0  0  0
    0.5997   -0.8126   -0.0046 H   0  0  0  0  0  0  0  0  0  0  0  0
    2.9222    1.1761    0.2174 H   0  0  0  0  0  0  0  0  0  0  0  0
    2.8729   -0.2184   -0.8646 H   0  0  0  0  0  0  0  0  0  0  0  0
    2.6897   -1.7460    1.1143 H   0  0  0  0  0  0  0  0  0  0  0  0
    2.7389   -0.3529    2.1951 H   0  0  0  0  0  0  0  0  0  0  0  0
    5.0151    0.2426    1.3268 H   0  0  0  0  0  0  0  0  0  0  0  0
    4.9657   -1.1524    0.2437 H   0  0  0  0  0  0  0  0  0  0  0  0
    4.7168   -2.6729    2.2161 H   0  0  0  0  0  0  0  0  0  0  0  0
    4.7642   -1.2869    3.2982 H   0  0  0  0  0  0  0  0  0  0  0  0
    7.0837   -0.7284    2.4970 H   0  0  0  0  0  0  0  0  0  0  0  0
    7.0485   -2.0929    1.3997 H   0  0  0  0  0  0  0  0  0  0  0  0
    7.2937   -1.0308    4.9224 H   0  0  0  0  0  0  0  0  0  0  0  0
    7.8849   -2.4983    6.8066 H   0  0  0  0  0  0  0  0  0  0  0  0
    8.1879   -4.6600    7.4593 H   0  0  0  0  0  0  0  0  0  0  0  0
    7.7891   -6.5631    5.0547 H   0  0  0  0  0  0  0  0  0  0  0  0
    7.0914   -5.5384    2.2226 H   0  0  0  0  0  0  0  0  0  0  0  0
  1  2  1  0  0  0  0
  1 16  1  0  0  0  0
  1 17  1  0  0  0  0
  1 18  1  0  0  0  0
  2  3  1  0  0  0  0
  2 19  1  0  0  0  0
  2 20  1  0  0  0  0
  3  4  1  0  0  0  0
  3 21  1  0  0  0  0
  3 22  1  0  0  0  0
  4  5  1  0  0  0  0
  4 23  1  0  0  0  0
  4 24  1  0  0  0  0
  5  6  1  0  0  0  0
  5 25  1  0  0  0  0
  5 26  1  0  0  0  0
  6  7  1  0  0  0  0
  6 27  1  0  0  0  0
  6 28  1  0  0  0  0
  7  8  1  0  0  0  0
  7 14  2  0  0  0  0
  8  9  2  0  0  0  0
  8 29  1  0  0  0  0
  9 10  1  0  0  0  0
  9 30  1  0  0  0  0
 10 11  1  0  0  0  0
 10 12  2  0  0  0  0
 11 31  1  0  0  0  0
 12 13  1  0  0  0  0
 12 14  1  0  0  0  0
 13 32  1  0  0  0  0
 14 15  1  0  0  0  0
 15 33  1  0  0  0  0
M  END
>  <Line_Number>
27


> <IC50>
91000

$$$$
