145958008.0
 OpenBabel09092522103D

 25 25  0  0  0  0  0  0  0  0999 V2000
    1.1635   -0.2503    0.4443 O   0  0  0  0  0  0  0  0  0  0  0  0
    2.3630   -0.1055    0.2220 C   0  0  0  0  0  0  0  0  0  0  0  0
    3.0775   -0.6226   -1.0072 C   0  0  0  0  0  0  0  0  0  0  0  0
    2.0744   -1.3124   -1.9202 C   0  0  0  0  0  0  0  0  0  0  0  0
    2.7227   -1.8352   -3.1263 N   0  0  0  0  0  0  0  0  0  0  0  0
    1.8794   -2.5124   -4.0447 C   0  0  0  0  0  0  0  0  0  0  0  0
    0.5483   -2.1185   -4.2575 C   0  0  0  0  0  0  0  0  0  0  0  0
   -0.2642   -2.7580   -5.1987 C   0  0  0  0  0  0  0  0  0  0  0  0
    0.2480   -3.7864   -5.9808 C   0  0  0  0  0  0  0  0  0  0  0  0
    1.5787   -4.1688   -5.8289 C   0  0  0  0  0  0  0  0  0  0  0  0
    2.3877   -3.5313   -4.8797 C   0  0  0  0  0  0  0  0  0  0  0  0
    4.0302   -4.0604   -4.7284 Cl  0  0  0  0  0  0  0  0  0  0  0  0
    3.1834    0.5478    1.1060 N   0  0  0  0  0  0  0  0  0  0  0  0
    2.5635    1.0867    2.2549 O   0  0  0  0  0  0  0  0  0  0  0  0
    3.8661   -1.3171   -0.6974 H   0  0  0  0  0  0  0  0  0  0  0  0
    3.5486    0.2207   -1.5264 H   0  0  0  0  0  0  0  0  0  0  0  0
    1.3155   -0.5697   -2.1880 H   0  0  0  0  0  0  0  0  0  0  0  0
    1.5816   -2.1326   -1.3834 H   0  0  0  0  0  0  0  0  0  0  0  0
    3.5335   -2.4255   -2.9276 H   0  0  0  0  0  0  0  0  0  0  0  0
    0.1075   -1.2985   -3.6999 H   0  0  0  0  0  0  0  0  0  0  0  0
   -1.2964   -2.4385   -5.3206 H   0  0  0  0  0  0  0  0  0  0  0  0
   -0.3854   -4.2788   -6.7139 H   0  0  0  0  0  0  0  0  0  0  0  0
    1.9813   -4.9624   -6.4525 H   0  0  0  0  0  0  0  0  0  0  0  0
    4.1517    0.7970    0.9383 H   0  0  0  0  0  0  0  0  0  0  0  0
    1.6266    0.8132    2.1371 H   0  0  0  0  0  0  0  0  0  0  0  0
  1  2  2  0  0  0  0
  2  3  1  0  0  0  0
  2 13  1  0  0  0  0
  3  4  1  0  0  0  0
  3 15  1  0  0  0  0
  3 16  1  0  0  0  0
  4  5  1  0  0  0  0
  4 17  1  0  0  0  0
  4 18  1  0  0  0  0
  5  6  1  0  0  0  0
  5 19  1  0  0  0  0
  6  7  1  0  0  0  0
  6 11  2  0  0  0  0
  7  8  2  0  0  0  0
  7 20  1  0  0  0  0
  8  9  1  0  0  0  0
  8 21  1  0  0  0  0
  9 10  2  0  0  0  0
  9 22  1  0  0  0  0
 10 11  1  0  0  0  0
 10 23  1  0  0  0  0
 11 12  1  0  0  0  0
 13 14  1  0  0  0  0
 13 24  1  0  0  0  0
 14 25  1  0  0  0  0
M  END
>  <Line_Number>
280


> <IC50>
2982

$$$$
