145951194.0
 OpenBabel09092522103D

 25 25  0  0  0  0  0  0  0  0999 V2000
    1.0937    0.2019    0.1565 O   0  0  0  0  0  0  0  0  0  0  0  0
    2.3126    0.0932    0.0336 C   0  0  0  0  0  0  0  0  0  0  0  0
    3.0677   -1.2130    0.1064 C   0  0  0  0  0  0  0  0  0  0  0  0
    2.1071   -2.3694    0.3505 C   0  0  0  0  0  0  0  0  0  0  0  0
    2.8365   -3.6382    0.4223 N   0  0  0  0  0  0  0  0  0  0  0  0
    2.0917   -4.8165    0.6510 C   0  0  0  0  0  0  0  0  0  0  0  0
    0.7769   -4.9661    0.1851 C   0  0  0  0  0  0  0  0  0  0  0  0
    0.0722   -6.1615    0.3604 C   0  0  0  0  0  0  0  0  0  0  0  0
    0.6864   -7.2445    0.9796 C   0  0  0  0  0  0  0  0  0  0  0  0
   -0.1872   -8.7107    1.1914 Cl  0  0  0  0  0  0  0  0  0  0  0  0
    2.0018   -7.1493    1.4176 C   0  0  0  0  0  0  0  0  0  0  0  0
    2.6985   -5.9492    1.2416 C   0  0  0  0  0  0  0  0  0  0  0  0
    4.3356   -5.8756    1.8068 Cl  0  0  0  0  0  0  0  0  0  0  0  0
    3.1196    1.1810   -0.1829 N   0  0  0  0  0  0  0  0  0  0  0  0
    2.4884    2.4384   -0.2808 O   0  0  0  0  0  0  0  0  0  0  0  0
    3.8071   -1.1490    0.9125 H   0  0  0  0  0  0  0  0  0  0  0  0
    3.6047   -1.3611   -0.8386 H   0  0  0  0  0  0  0  0  0  0  0  0
    1.3893   -2.3881   -0.4769 H   0  0  0  0  0  0  0  0  0  0  0  0
    1.5533   -2.2086    1.2838 H   0  0  0  0  0  0  0  0  0  0  0  0
    3.6359   -3.6139    1.0605 H   0  0  0  0  0  0  0  0  0  0  0  0
    0.2669   -4.1599   -0.3332 H   0  0  0  0  0  0  0  0  0  0  0  0
   -0.9503   -6.2365    0.0003 H   0  0  0  0  0  0  0  0  0  0  0  0
    2.4829   -8.0009    1.8897 H   0  0  0  0  0  0  0  0  0  0  0  0
    4.1201    1.1483   -0.3475 H   0  0  0  0  0  0  0  0  0  0  0  0
    1.5400    2.2121   -0.1589 H   0  0  0  0  0  0  0  0  0  0  0  0
  1  2  2  0  0  0  0
  2  3  1  0  0  0  0
  2 14  1  0  0  0  0
  3  4  1  0  0  0  0
  3 16  1  0  0  0  0
  3 17  1  0  0  0  0
  4  5  1  0  0  0  0
  4 18  1  0  0  0  0
  4 19  1  0  0  0  0
  5  6  1  0  0  0  0
  5 20  1  0  0  0  0
  6  7  1  0  0  0  0
  6 12  2  0  0  0  0
  7  8  2  0  0  0  0
  7 21  1  0  0  0  0
  8  9  1  0  0  0  0
  8 22  1  0  0  0  0
  9 10  1  0  0  0  0
  9 11  2  0  0  0  0
 11 12  1  0  0  0  0
 11 23  1  0  0  0  0
 12 13  1  0  0  0  0
 14 15  1  0  0  0  0
 14 24  1  0  0  0  0
 15 25  1  0  0  0  0
M  END
>  <Line_Number>
281


> <IC50>
79

$$$$
