130006294.0
 OpenBabel09092522103D

 22 22  0  0  0  0  0  0  0  0999 V2000
    2.5763    0.4307   -0.9826 O   0  0  0  0  0  0  0  0  0  0  0  0
    2.1750    0.0243    0.1077 C   0  0  0  0  0  0  0  0  0  0  0  0
    2.9359   -0.9956    0.9550 C   0  0  0  0  0  0  0  0  0  0  0  0
    2.0401   -1.6848    1.9054 N   0  0  0  0  0  0  0  0  0  0  0  0
    2.6232   -2.6915    2.7121 C   0  0  0  0  0  0  0  0  0  0  0  0
    3.9128   -2.5605    3.2487 C   0  0  0  0  0  0  0  0  0  0  0  0
    4.4503   -3.5392    4.0922 C   0  0  0  0  0  0  0  0  0  0  0  0
    3.6973   -4.6561    4.4441 C   0  0  0  0  0  0  0  0  0  0  0  0
    2.3964   -4.7890    3.9642 C   0  0  0  0  0  0  0  0  0  0  0  0
    1.8628   -3.8089    3.1203 C   0  0  0  0  0  0  0  0  0  0  0  0
    0.2395   -4.0240    2.5511 Cl  0  0  0  0  0  0  0  0  0  0  0  0
    1.0281    0.5033    0.6883 N   0  0  0  0  0  0  0  0  0  0  0  0
    0.3578    1.5506    0.0222 O   0  0  0  0  0  0  0  0  0  0  0  0
    3.7108   -0.4305    1.4825 H   0  0  0  0  0  0  0  0  0  0  0  0
    3.3970   -1.7237    0.2788 H   0  0  0  0  0  0  0  0  0  0  0  0
    1.2304   -2.0909    1.4243 H   0  0  0  0  0  0  0  0  0  0  0  0
    4.5258   -1.6907    3.0366 H   0  0  0  0  0  0  0  0  0  0  0  0
    5.4576   -3.4191    4.4839 H   0  0  0  0  0  0  0  0  0  0  0  0
    4.1174   -5.4130    5.1001 H   0  0  0  0  0  0  0  0  0  0  0  0
    1.8024   -5.6522    4.2521 H   0  0  0  0  0  0  0  0  0  0  0  0
    0.8012    0.3223    1.6636 H   0  0  0  0  0  0  0  0  0  0  0  0
    0.9205    1.6923   -0.7702 H   0  0  0  0  0  0  0  0  0  0  0  0
  1  2  2  0  0  0  0
  2  3  1  0  0  0  0
  2 12  1  0  0  0  0
  3  4  1  0  0  0  0
  3 14  1  0  0  0  0
  3 15  1  0  0  0  0
  4  5  1  0  0  0  0
  4 16  1  0  0  0  0
  5  6  1  0  0  0  0
  5 10  2  0  0  0  0
  6  7  2  0  0  0  0
  6 17  1  0  0  0  0
  7  8  1  0  0  0  0
  7 18  1  0  0  0  0
  8  9  2  0  0  0  0
  8 19  1  0  0  0  0
  9 10  1  0  0  0  0
  9 20  1  0  0  0  0
 10 11  1  0  0  0  0
 12 13  1  0  0  0  0
 12 21  1  0  0  0  0
 13 22  1  0  0  0  0
M  END
>  <Line_Number>
283


> <IC50>
58900

$$$$
