145971740.0
 OpenBabel09092522103D

 25 25  0  0  0  0  0  0  0  0999 V2000
    1.0396   -0.2367    0.0394 O   0  0  0  0  0  0  0  0  0  0  0  0
    2.2442   -0.0197    0.1262 C   0  0  0  0  0  0  0  0  0  0  0  0
    3.0007    0.9781   -0.7225 C   0  0  0  0  0  0  0  0  0  0  0  0
    2.0545    1.7051   -1.6690 C   0  0  0  0  0  0  0  0  0  0  0  0
    2.7934    2.6642   -2.5032 N   0  0  0  0  0  0  0  0  0  0  0  0
    2.0464    3.4070   -3.4362 C   0  0  0  0  0  0  0  0  0  0  0  0
    0.7165    3.7912   -3.2144 C   0  0  0  0  0  0  0  0  0  0  0  0
    0.0221    4.5776   -4.1378 C   0  0  0  0  0  0  0  0  0  0  0  0
    0.6538    5.0229   -5.2960 C   0  0  0  0  0  0  0  0  0  0  0  0
   -0.2654    5.9864   -6.3949 Cl  0  0  0  0  0  0  0  0  0  0  0  0
    1.9918    4.6897   -5.5180 C   0  0  0  0  0  0  0  0  0  0  0  0
    2.8485    5.2076   -6.9278 Cl  0  0  0  0  0  0  0  0  0  0  0  0
    2.6836    3.9052   -4.5826 C   0  0  0  0  0  0  0  0  0  0  0  0
    3.0434   -0.6907    1.0188 N   0  0  0  0  0  0  0  0  0  0  0  0
    2.4281   -1.6653    1.8298 O   0  0  0  0  0  0  0  0  0  0  0  0
    3.7720    0.4430   -1.2880 H   0  0  0  0  0  0  0  0  0  0  0  0
    3.4995    1.6969   -0.0615 H   0  0  0  0  0  0  0  0  0  0  0  0
    1.3031    2.2217   -1.0623 H   0  0  0  0  0  0  0  0  0  0  0  0
    1.5403    0.9819   -2.3142 H   0  0  0  0  0  0  0  0  0  0  0  0
    3.6122    2.2480   -2.9444 H   0  0  0  0  0  0  0  0  0  0  0  0
    0.1888    3.4952   -2.3133 H   0  0  0  0  0  0  0  0  0  0  0  0
   -1.0134    4.8412   -3.9358 H   0  0  0  0  0  0  0  0  0  0  0  0
    3.7308    3.6739   -4.7631 H   0  0  0  0  0  0  0  0  0  0  0  0
    4.0459   -0.5725    1.1129 H   0  0  0  0  0  0  0  0  0  0  0  0
    1.4951   -1.6437    1.5234 H   0  0  0  0  0  0  0  0  0  0  0  0
  1  2  2  0  0  0  0
  2  3  1  0  0  0  0
  2 14  1  0  0  0  0
  3  4  1  0  0  0  0
  3 16  1  0  0  0  0
  3 17  1  0  0  0  0
  4  5  1  0  0  0  0
  4 18  1  0  0  0  0
  4 19  1  0  0  0  0
  5  6  1  0  0  0  0
  5 20  1  0  0  0  0
  6  7  1  0  0  0  0
  6 13  2  0  0  0  0
  7  8  2  0  0  0  0
  7 21  1  0  0  0  0
  8  9  1  0  0  0  0
  8 22  1  0  0  0  0
  9 10  1  0  0  0  0
  9 11  2  0  0  0  0
 11 12  1  0  0  0  0
 11 13  1  0  0  0  0
 13 23  1  0  0  0  0
 14 15  1  0  0  0  0
 14 24  1  0  0  0  0
 15 25  1  0  0  0  0
M  END
>  <Line_Number>
285


> <IC50>
19805

$$$$
