145959452.0
 OpenBabel09092522113D

 31 31  0  0  0  0  0  0  0  0999 V2000
    2.5218    1.0380    0.0136 C   0  0  0  0  0  0  0  0  0  0  0  0
    1.2093    0.3123    0.0113 C   0  0  0  0  0  0  0  0  0  0  0  0
    0.0035    1.0192    0.0216 C   0  0  0  0  0  0  0  0  0  0  0  0
   -1.2145    0.3379   -0.0047 C   0  0  0  0  0  0  0  0  0  0  0  0
   -2.5210    1.0714   -0.0073 C   0  0  0  0  0  0  0  0  0  0  0  0
   -1.2150   -1.0647   -0.0407 C   0  0  0  0  0  0  0  0  0  0  0  0
   -0.0273   -1.8068   -0.0190 C   0  0  0  0  0  0  0  0  0  0  0  0
    0.0106   -3.2069   -0.1393 N   0  0  0  0  0  0  0  0  0  0  0  0
   -1.2406   -3.9504    0.0132 C   0  0  0  0  0  0  0  0  0  0  0  0
   -0.9955   -5.4533    0.0224 C   0  0  0  0  0  0  0  0  0  0  0  0
   -2.3167   -6.1843    0.0715 C   0  0  0  0  0  0  0  0  0  0  0  0
   -3.4167   -5.6344    0.0843 O   0  0  0  0  0  0  0  0  0  0  0  0
   -2.2018   -7.5498    0.1061 N   0  0  0  0  0  0  0  0  0  0  0  0
   -3.4129   -8.2785    0.1113 O   0  0  0  0  0  0  0  0  0  0  0  0
    1.1821   -1.0942   -0.0121 C   0  0  0  0  0  0  0  0  0  0  0  0
    2.3794    2.1238   -0.0026 H   0  0  0  0  0  0  0  0  0  0  0  0
    3.1058    0.7662   -0.8715 H   0  0  0  0  0  0  0  0  0  0  0  0
    3.0910    0.7880    0.9143 H   0  0  0  0  0  0  0  0  0  0  0  0
    0.0134    2.1072    0.0345 H   0  0  0  0  0  0  0  0  0  0  0  0
   -2.3725    2.1569    0.0075 H   0  0  0  0  0  0  0  0  0  0  0  0
   -3.1091    0.8024    0.8753 H   0  0  0  0  0  0  0  0  0  0  0  0
   -3.0904    0.8252   -0.9096 H   0  0  0  0  0  0  0  0  0  0  0  0
   -2.1788   -1.5642   -0.0791 H   0  0  0  0  0  0  0  0  0  0  0  0
    0.8134   -3.6021    0.3428 H   0  0  0  0  0  0  0  0  0  0  0  0
   -1.9078   -3.7035   -0.8225 H   0  0  0  0  0  0  0  0  0  0  0  0
   -1.7394   -3.6673    0.9486 H   0  0  0  0  0  0  0  0  0  0  0  0
   -0.4016   -5.7359    0.8991 H   0  0  0  0  0  0  0  0  0  0  0  0
   -0.4496   -5.7631   -0.8760 H   0  0  0  0  0  0  0  0  0  0  0  0
   -1.3397   -8.0759    0.0226 H   0  0  0  0  0  0  0  0  0  0  0  0
   -4.0905   -7.5679    0.0875 H   0  0  0  0  0  0  0  0  0  0  0  0
    2.1229   -1.6391   -0.0426 H   0  0  0  0  0  0  0  0  0  0  0  0
  1  2  1  0  0  0  0
  1 16  1  0  0  0  0
  1 17  1  0  0  0  0
  1 18  1  0  0  0  0
  2  3  1  0  0  0  0
  2 15  2  0  0  0  0
  3  4  2  0  0  0  0
  3 19  1  0  0  0  0
  4  5  1  0  0  0  0
  4  6  1  0  0  0  0
  5 20  1  0  0  0  0
  5 21  1  0  0  0  0
  5 22  1  0  0  0  0
  6  7  2  0  0  0  0
  6 23  1  0  0  0  0
  7  8  1  0  0  0  0
  7 15  1  0  0  0  0
  8  9  1  0  0  0  0
  8 24  1  0  0  0  0
  9 10  1  0  0  0  0
  9 25  1  0  0  0  0
  9 26  1  0  0  0  0
 10 11  1  0  0  0  0
 10 27  1  0  0  0  0
 10 28  1  0  0  0  0
 11 12  2  0  0  0  0
 11 13  1  0  0  0  0
 13 14  1  0  0  0  0
 13 29  1  0  0  0  0
 14 30  1  0  0  0  0
 15 31  1  0  0  0  0
M  END
>  <Line_Number>
288


> <IC50>
2930

$$$$
