46769547.0
 OpenBabel09092522113D

 25 25  0  0  0  0  0  0  0  0999 V2000
    2.4669   -0.0318   -0.0128 C   0  0  0  0  0  0  0  0  0  0  0  0
    0.9668    0.0117   -0.0131 C   0  0  0  0  0  0  0  0  0  0  0  0
    0.2766    1.2227    0.0014 C   0  0  0  0  0  0  0  0  0  0  0  0
   -1.1253    1.2402    0.0022 C   0  0  0  0  0  0  0  0  0  0  0  0
   -1.8658    0.0543   -0.0493 C   0  0  0  0  0  0  0  0  0  0  0  0
   -3.2675    0.1584    0.0412 N   0  0  0  0  0  0  0  0  0  0  0  0
   -4.0653   -0.9626   -0.4999 C   0  0  0  0  0  0  0  0  0  0  0  0
   -5.5575   -0.7480   -0.2427 C   0  0  0  0  0  0  0  0  0  0  0  0
   -6.3769   -1.6654   -0.2058 O   0  0  0  0  0  0  0  0  0  0  0  0
   -5.9204    0.5613   -0.0667 N   0  0  0  0  0  0  0  0  0  0  0  0
   -7.2860    0.8392    0.1439 O   0  0  0  0  0  0  0  0  0  0  0  0
   -1.1654   -1.1554   -0.0259 C   0  0  0  0  0  0  0  0  0  0  0  0
    0.2353   -1.1800   -0.0190 C   0  0  0  0  0  0  0  0  0  0  0  0
    2.8973    0.9752   -0.0009 H   0  0  0  0  0  0  0  0  0  0  0  0
    2.8288   -0.5413   -0.9116 H   0  0  0  0  0  0  0  0  0  0  0  0
    2.8290   -0.5620    0.8727 H   0  0  0  0  0  0  0  0  0  0  0  0
    0.8161    2.1678    0.0142 H   0  0  0  0  0  0  0  0  0  0  0  0
   -1.6377    2.1971    0.0243 H   0  0  0  0  0  0  0  0  0  0  0  0
   -3.4947    0.3098    1.0271 H   0  0  0  0  0  0  0  0  0  0  0  0
   -3.8026   -1.9085   -0.0169 H   0  0  0  0  0  0  0  0  0  0  0  0
   -3.9195   -1.0402   -1.5832 H   0  0  0  0  0  0  0  0  0  0  0  0
   -5.2790    1.3328   -0.2339 H   0  0  0  0  0  0  0  0  0  0  0  0
   -7.6840   -0.0585    0.1508 H   0  0  0  0  0  0  0  0  0  0  0  0
   -1.6768   -2.1109    0.0014 H   0  0  0  0  0  0  0  0  0  0  0  0
    0.7487   -2.1359   -0.0091 H   0  0  0  0  0  0  0  0  0  0  0  0
  1  2  1  0  0  0  0
  1 14  1  0  0  0  0
  1 15  1  0  0  0  0
  1 16  1  0  0  0  0
  2  3  1  0  0  0  0
  2 13  2  0  0  0  0
  3  4  2  0  0  0  0
  3 17  1  0  0  0  0
  4  5  1  0  0  0  0
  4 18  1  0  0  0  0
  5  6  1  0  0  0  0
  5 12  2  0  0  0  0
  6  7  1  0  0  0  0
  6 19  1  0  0  0  0
  7  8  1  0  0  0  0
  7 20  1  0  0  0  0
  7 21  1  0  0  0  0
  8  9  2  0  0  0  0
  8 10  1  0  0  0  0
 10 11  1  0  0  0  0
 10 22  1  0  0  0  0
 11 23  1  0  0  0  0
 12 13  1  0  0  0  0
 12 24  1  0  0  0  0
 13 25  1  0  0  0  0
M  END
>  <Line_Number>
289


> <IC50>
3910

$$$$
