145956231.0
 OpenBabel09092522113D

 24 24  0  0  0  0  0  0  0  0999 V2000
    2.7388   -0.8738    0.5957 O   0  0  0  0  0  0  0  0  0  0  0  0
    2.3417    0.2734    0.3987 C   0  0  0  0  0  0  0  0  0  0  0  0
    3.0191    1.2383   -0.5754 C   0  0  0  0  0  0  0  0  0  0  0  0
    2.1089    2.3383   -0.9663 N   0  0  0  0  0  0  0  0  0  0  0  0
    2.6531    3.3656   -1.7563 C   0  0  0  0  0  0  0  0  0  0  0  0
    3.6724    3.1686   -2.6976 C   0  0  0  0  0  0  0  0  0  0  0  0
    4.1182    4.2159   -3.5131 C   0  0  0  0  0  0  0  0  0  0  0  0
    3.5364    5.4768   -3.4151 C   0  0  0  0  0  0  0  0  0  0  0  0
    2.4903    5.6744   -2.5082 C   0  0  0  0  0  0  0  0  0  0  0  0
    1.8608    6.9951   -2.4045 N   0  3  0  0  0  0  0  0  0  0  0  0
    2.3142    7.9068   -3.1092 O   0  0  0  0  0  0  0  0  0  0  0  0
    0.9101    7.1220   -1.6185 O   0  5  0  0  0  0  0  0  0  0  0  0
    2.0374    4.6217   -1.6987 C   0  0  0  0  0  0  0  0  0  0  0  0
    1.2651    0.7986    1.0672 N   0  0  0  0  0  0  0  0  0  0  0  0
    0.6607   -0.0026    2.0572 O   0  0  0  0  0  0  0  0  0  0  0  0
    3.3191    0.6553   -1.4509 H   0  0  0  0  0  0  0  0  0  0  0  0
    3.9051    1.6429   -0.0690 H   0  0  0  0  0  0  0  0  0  0  0  0
    1.2977    1.9536   -1.4598 H   0  0  0  0  0  0  0  0  0  0  0  0
    4.1387    2.1964   -2.8301 H   0  0  0  0  0  0  0  0  0  0  0  0
    4.9178    4.0403   -4.2304 H   0  0  0  0  0  0  0  0  0  0  0  0
    3.8984    6.2823   -4.0510 H   0  0  0  0  0  0  0  0  0  0  0  0
    1.2174    4.7753   -0.9992 H   0  0  0  0  0  0  0  0  0  0  0  0
    1.0506    1.7929    1.0448 H   0  0  0  0  0  0  0  0  0  0  0  0
    1.2142   -0.8135    2.0425 H   0  0  0  0  0  0  0  0  0  0  0  0
  1  2  2  0  0  0  0
  2  3  1  0  0  0  0
  2 14  1  0  0  0  0
  3  4  1  0  0  0  0
  3 16  1  0  0  0  0
  3 17  1  0  0  0  0
  4  5  1  0  0  0  0
  4 18  1  0  0  0  0
  5  6  1  0  0  0  0
  5 13  2  0  0  0  0
  6  7  2  0  0  0  0
  6 19  1  0  0  0  0
  7  8  1  0  0  0  0
  7 20  1  0  0  0  0
  8  9  2  0  0  0  0
  8 21  1  0  0  0  0
  9 10  1  0  0  0  0
  9 13  1  0  0  0  0
 10 11  2  0  0  0  0
 10 12  1  0  0  0  0
 13 22  1  0  0  0  0
 14 15  1  0  0  0  0
 14 23  1  0  0  0  0
 15 24  1  0  0  0  0
M  CHG  2  10   1  12  -1
M  END
>  <Line_Number>
290


> <IC50>
8210

$$$$
