46769546.0
 OpenBabel09092522113D

 22 22  0  0  0  0  0  0  0  0999 V2000
    2.3425   -0.6846   -0.9435 O   0  0  0  0  0  0  0  0  0  0  0  0
    2.1025    0.2478   -0.1766 C   0  0  0  0  0  0  0  0  0  0  0  0
    2.8630    0.4785    1.1272 C   0  0  0  0  0  0  0  0  0  0  0  0
    1.9736    1.0353    2.1721 N   0  0  0  0  0  0  0  0  0  0  0  0
    2.5792    1.3285    3.4116 C   0  0  0  0  0  0  0  0  0  0  0  0
    1.9607    2.2816    4.2332 C   0  0  0  0  0  0  0  0  0  0  0  0
    2.4558    2.5680    5.5105 C   0  0  0  0  0  0  0  0  0  0  0  0
    3.5599    1.8734    5.9937 C   0  0  0  0  0  0  0  0  0  0  0  0
    4.1767    2.2174    7.5615 Cl  0  0  0  0  0  0  0  0  0  0  0  0
    4.1604    0.8902    5.2149 C   0  0  0  0  0  0  0  0  0  0  0  0
    3.6644    0.6135    3.9363 C   0  0  0  0  0  0  0  0  0  0  0  0
    1.1380    1.1871   -0.4454 N   0  0  0  0  0  0  0  0  0  0  0  0
    0.3025    0.9170   -1.5544 O   0  0  0  0  0  0  0  0  0  0  0  0
    3.6885    1.1680    0.9181 H   0  0  0  0  0  0  0  0  0  0  0  0
    3.2576   -0.4955    1.4344 H   0  0  0  0  0  0  0  0  0  0  0  0
    1.2084    0.3815    2.3600 H   0  0  0  0  0  0  0  0  0  0  0  0
    1.0912    2.8261    3.8708 H   0  0  0  0  0  0  0  0  0  0  0  0
    1.9737    3.3281    6.1192 H   0  0  0  0  0  0  0  0  0  0  0  0
    5.0080    0.3265    5.5955 H   0  0  0  0  0  0  0  0  0  0  0  0
    4.1447   -0.1831    3.3769 H   0  0  0  0  0  0  0  0  0  0  0  0
    0.7670    1.7674    0.3012 H   0  0  0  0  0  0  0  0  0  0  0  0
    0.6767    0.0784   -1.9042 H   0  0  0  0  0  0  0  0  0  0  0  0
  1  2  2  0  0  0  0
  2  3  1  0  0  0  0
  2 12  1  0  0  0  0
  3  4  1  0  0  0  0
  3 14  1  0  0  0  0
  3 15  1  0  0  0  0
  4  5  1  0  0  0  0
  4 16  1  0  0  0  0
  5  6  1  0  0  0  0
  5 11  2  0  0  0  0
  6  7  2  0  0  0  0
  6 17  1  0  0  0  0
  7  8  1  0  0  0  0
  7 18  1  0  0  0  0
  8  9  1  0  0  0  0
  8 10  2  0  0  0  0
 10 11  1  0  0  0  0
 10 19  1  0  0  0  0
 11 20  1  0  0  0  0
 12 13  1  0  0  0  0
 12 21  1  0  0  0  0
 13 22  1  0  0  0  0
M  END
>  <Line_Number>
291


> <IC50>
2470

$$$$
