145950151.0
 OpenBabel09092522113D

 22 22  0  0  0  0  0  0  0  0999 V2000
    2.6055    0.0449   -1.1760 O   0  0  0  0  0  0  0  0  0  0  0  0
    2.2678    0.1980   -0.0048 C   0  0  0  0  0  0  0  0  0  0  0  0
    3.0191   -0.3990    1.1866 C   0  0  0  0  0  0  0  0  0  0  0  0
    2.0574   -0.8289    2.2230 N   0  0  0  0  0  0  0  0  0  0  0  0
    2.5646   -1.4143    3.3951 C   0  0  0  0  0  0  0  0  0  0  0  0
    3.8019   -1.0772    3.9572 C   0  0  0  0  0  0  0  0  0  0  0  0
    4.2235   -1.6376    5.1708 C   0  0  0  0  0  0  0  0  0  0  0  0
    3.3983   -2.5244    5.8571 C   0  0  0  0  0  0  0  0  0  0  0  0
    2.1491   -2.8335    5.3321 C   0  0  0  0  0  0  0  0  0  0  0  0
    1.0069   -4.0187    6.2639 Br  0  0  0  0  0  0  0  0  0  0  0  0
    1.7272   -2.2727    4.1249 C   0  0  0  0  0  0  0  0  0  0  0  0
    1.1828    0.9629    0.3580 N   0  0  0  0  0  0  0  0  0  0  0  0
    0.3502    1.4159   -0.6882 O   0  0  0  0  0  0  0  0  0  0  0  0
    3.6980    0.3762    1.5563 H   0  0  0  0  0  0  0  0  0  0  0  0
    3.5930   -1.2619    0.8316 H   0  0  0  0  0  0  0  0  0  0  0  0
    1.3406   -1.4344    1.8200 H   0  0  0  0  0  0  0  0  0  0  0  0
    4.4662   -0.3672    3.4756 H   0  0  0  0  0  0  0  0  0  0  0  0
    5.1928   -1.3695    5.5829 H   0  0  0  0  0  0  0  0  0  0  0  0
    3.7302   -2.9533    6.7985 H   0  0  0  0  0  0  0  0  0  0  0  0
    0.7374   -2.5131    3.7459 H   0  0  0  0  0  0  0  0  0  0  0  0
    0.7779    0.8757    1.2883 H   0  0  0  0  0  0  0  0  0  0  0  0
    0.8044    1.0720   -1.4880 H   0  0  0  0  0  0  0  0  0  0  0  0
  1  2  2  0  0  0  0
  2  3  1  0  0  0  0
  2 12  1  0  0  0  0
  3  4  1  0  0  0  0
  3 14  1  0  0  0  0
  3 15  1  0  0  0  0
  4  5  1  0  0  0  0
  4 16  1  0  0  0  0
  5  6  1  0  0  0  0
  5 11  2  0  0  0  0
  6  7  2  0  0  0  0
  6 17  1  0  0  0  0
  7  8  1  0  0  0  0
  7 18  1  0  0  0  0
  8  9  2  0  0  0  0
  8 19  1  0  0  0  0
  9 10  1  0  0  0  0
  9 11  1  0  0  0  0
 11 20  1  0  0  0  0
 12 13  1  0  0  0  0
 12 21  1  0  0  0  0
 13 22  1  0  0  0  0
M  END
>  <Line_Number>
294


> <IC50>
24480

$$$$
