145955823.0
 OpenBabel09092522113D

 25 25  0  0  0  0  0  0  0  0999 V2000
    1.1169   -0.1542    0.1229 O   0  0  0  0  0  0  0  0  0  0  0  0
    2.3313   -0.0444   -0.0345 C   0  0  0  0  0  0  0  0  0  0  0  0
    3.0754   -0.4670   -1.2790 C   0  0  0  0  0  0  0  0  0  0  0  0
    2.0985   -1.0047   -2.3163 C   0  0  0  0  0  0  0  0  0  0  0  0
    2.8140   -1.4396   -3.5219 N   0  0  0  0  0  0  0  0  0  0  0  0
    2.0330   -1.9834   -4.5600 C   0  0  0  0  0  0  0  0  0  0  0  0
    0.7160   -1.5756   -4.8226 C   0  0  0  0  0  0  0  0  0  0  0  0
   -0.0092   -2.1092   -5.8918 C   0  0  0  0  0  0  0  0  0  0  0  0
    0.5914   -3.0335   -6.7309 C   0  0  0  0  0  0  0  0  0  0  0  0
   -0.1042   -3.5509   -7.7515 F   0  0  0  0  0  0  0  0  0  0  0  0
    1.9098   -3.4170   -6.5321 C   0  0  0  0  0  0  0  0  0  0  0  0
    2.6316   -2.8788   -5.4614 C   0  0  0  0  0  0  0  0  0  0  0  0
    3.1394    0.4749    0.9435 N   0  0  0  0  0  0  0  0  0  0  0  0
    2.5053    0.8924    2.1334 O   0  0  0  0  0  0  0  0  0  0  0  0
    3.8105   -1.2330   -1.0070 H   0  0  0  0  0  0  0  0  0  0  0  0
    3.6165    0.3983   -1.6797 H   0  0  0  0  0  0  0  0  0  0  0  0
    1.3895   -0.2050   -2.5570 H   0  0  0  0  0  0  0  0  0  0  0  0
    1.5371   -1.8499   -1.8984 H   0  0  0  0  0  0  0  0  0  0  0  0
    3.5948   -2.0580   -3.3087 H   0  0  0  0  0  0  0  0  0  0  0  0
    0.2230   -0.8308   -4.2064 H   0  0  0  0  0  0  0  0  0  0  0  0
   -1.0328   -1.7986   -6.0728 H   0  0  0  0  0  0  0  0  0  0  0  0
    2.3698   -4.1264   -7.2116 H   0  0  0  0  0  0  0  0  0  0  0  0
    3.6695   -3.1760   -5.3333 H   0  0  0  0  0  0  0  0  0  0  0  0
    4.1398    0.6209    0.8712 H   0  0  0  0  0  0  0  0  0  0  0  0
    1.5621    0.6797    1.9567 H   0  0  0  0  0  0  0  0  0  0  0  0
  1  2  2  0  0  0  0
  2  3  1  0  0  0  0
  2 13  1  0  0  0  0
  3  4  1  0  0  0  0
  3 15  1  0  0  0  0
  3 16  1  0  0  0  0
  4  5  1  0  0  0  0
  4 17  1  0  0  0  0
  4 18  1  0  0  0  0
  5  6  1  0  0  0  0
  5 19  1  0  0  0  0
  6  7  1  0  0  0  0
  6 12  2  0  0  0  0
  7  8  2  0  0  0  0
  7 20  1  0  0  0  0
  8  9  1  0  0  0  0
  8 21  1  0  0  0  0
  9 10  1  0  0  0  0
  9 11  2  0  0  0  0
 11 12  1  0  0  0  0
 11 22  1  0  0  0  0
 12 23  1  0  0  0  0
 13 14  1  0  0  0  0
 13 24  1  0  0  0  0
 14 25  1  0  0  0  0
M  END
>  <Line_Number>
295


> <IC50>
9040

$$$$
