129927960.0
 OpenBabel09092522113D

 26 26  0  0  0  0  0  0  0  0999 V2000
    1.3138   -0.4447    0.3904 C   0  0  0  0  0  0  0  0  0  0  0  0
    2.4989    0.1587   -0.1132 O   0  0  0  0  0  0  0  0  0  0  0  0
    3.1486    1.0301    0.7161 C   0  0  0  0  0  0  0  0  0  0  0  0
    2.7126    1.4485    1.9700 C   0  0  0  0  0  0  0  0  0  0  0  0
    3.4950    2.3251    2.7354 C   0  0  0  0  0  0  0  0  0  0  0  0
    4.7322    2.7830    2.2718 C   0  0  0  0  0  0  0  0  0  0  0  0
    5.5302    3.7193    2.9582 N   0  0  0  0  0  0  0  0  0  0  0  0
    5.4977    3.6375    4.4349 C   0  0  0  0  0  0  0  0  0  0  0  0
    6.5059    4.5965    5.0638 C   0  0  0  0  0  0  0  0  0  0  0  0
    6.3959    5.0402    6.2063 O   0  0  0  0  0  0  0  0  0  0  0  0
    7.5749    4.9052    4.2639 N   0  0  0  0  0  0  0  0  0  0  0  0
    8.5509    5.7805    4.7801 O   0  0  0  0  0  0  0  0  0  0  0  0
    5.1248    2.4132    0.9811 C   0  0  0  0  0  0  0  0  0  0  0  0
    4.3515    1.5310    0.2190 C   0  0  0  0  0  0  0  0  0  0  0  0
    0.9899   -1.2001   -0.3321 H   0  0  0  0  0  0  0  0  0  0  0  0
    0.5132    0.2959    0.4845 H   0  0  0  0  0  0  0  0  0  0  0  0
    1.4932   -0.9559    1.3425 H   0  0  0  0  0  0  0  0  0  0  0  0
    1.7645    1.1210    2.3839 H   0  0  0  0  0  0  0  0  0  0  0  0
    3.1005    2.6410    3.6955 H   0  0  0  0  0  0  0  0  0  0  0  0
    5.2362    4.6513    2.6536 H   0  0  0  0  0  0  0  0  0  0  0  0
    5.7570    2.6258    4.7674 H   0  0  0  0  0  0  0  0  0  0  0  0
    4.5109    3.9173    4.8158 H   0  0  0  0  0  0  0  0  0  0  0  0
    7.6968    4.5141    3.3333 H   0  0  0  0  0  0  0  0  0  0  0  0
    8.2028    5.9761    5.6779 H   0  0  0  0  0  0  0  0  0  0  0  0
    6.0564    2.7910    0.5671 H   0  0  0  0  0  0  0  0  0  0  0  0
    4.6939    1.2316   -0.7690 H   0  0  0  0  0  0  0  0  0  0  0  0
  1  2  1  0  0  0  0
  1 15  1  0  0  0  0
  1 16  1  0  0  0  0
  1 17  1  0  0  0  0
  2  3  1  0  0  0  0
  3  4  1  0  0  0  0
  3 14  2  0  0  0  0
  4  5  2  0  0  0  0
  4 18  1  0  0  0  0
  5  6  1  0  0  0  0
  5 19  1  0  0  0  0
  6  7  1  0  0  0  0
  6 13  2  0  0  0  0
  7  8  1  0  0  0  0
  7 20  1  0  0  0  0
  8  9  1  0  0  0  0
  8 21  1  0  0  0  0
  8 22  1  0  0  0  0
  9 10  2  0  0  0  0
  9 11  1  0  0  0  0
 11 12  1  0  0  0  0
 11 23  1  0  0  0  0
 12 24  1  0  0  0  0
 13 14  1  0  0  0  0
 13 25  1  0  0  0  0
 14 26  1  0  0  0  0
M  END
>  <Line_Number>
297


> <IC50>
69800

$$$$
