49844400.0
 OpenBabel09092522103D

 31 32  0  0  0  0  0  0  0  0999 V2000
    2.2141    1.1557    0.4826 O   0  0  0  0  0  0  0  0  0  0  0  0
    1.0934    0.3861    0.3564 C   0  0  0  0  0  0  0  0  0  0  0  0
    0.4195   -0.0727    1.4826 C   0  0  0  0  0  0  0  0  0  0  0  0
   -0.7213   -0.8723    1.3315 C   0  0  0  0  0  0  0  0  0  0  0  0
   -1.2038   -1.2358    0.0586 C   0  0  0  0  0  0  0  0  0  0  0  0
   -2.4277   -2.1233   -0.0120 C   0  0  0  0  0  0  0  0  0  0  0  0
   -3.7442   -1.3337   -0.0023 C   0  0  0  0  0  0  0  0  0  0  0  0
   -5.0267   -2.1455    0.0237 C   0  0  0  0  0  0  0  0  0  0  0  0
   -5.0652   -3.5476    0.0615 C   0  0  0  0  0  0  0  0  0  0  0  0
   -6.2854   -4.2332    0.0997 C   0  0  0  0  0  0  0  0  0  0  0  0
   -7.4822   -3.5230    0.0992 C   0  0  0  0  0  0  0  0  0  0  0  0
   -9.1288   -4.4509    0.1514 Br  0  0  0  0  0  0  0  0  0  0  0  0
   -7.4703   -2.1326    0.0629 C   0  0  0  0  0  0  0  0  0  0  0  0
   -6.2494   -1.4505    0.0260 C   0  0  0  0  0  0  0  0  0  0  0  0
   -0.5172   -0.7499   -1.0609 C   0  0  0  0  0  0  0  0  0  0  0  0
   -0.8812   -1.0185   -2.3555 O   0  0  0  0  0  0  0  0  0  0  0  0
    0.6208    0.0530   -0.9086 C   0  0  0  0  0  0  0  0  0  0  0  0
    1.2736    0.4998   -2.0290 O   0  0  0  0  0  0  0  0  0  0  0  0
    2.4151    1.2758    1.4228 H   0  0  0  0  0  0  0  0  0  0  0  0
    0.7650    0.1730    2.4814 H   0  0  0  0  0  0  0  0  0  0  0  0
   -1.2315   -1.2219    2.2282 H   0  0  0  0  0  0  0  0  0  0  0  0
   -2.3991   -2.8077    0.8466 H   0  0  0  0  0  0  0  0  0  0  0  0
   -2.3734   -2.7732   -0.8927 H   0  0  0  0  0  0  0  0  0  0  0  0
   -3.7745   -0.6847   -0.8876 H   0  0  0  0  0  0  0  0  0  0  0  0
   -3.7568   -0.6750    0.8769 H   0  0  0  0  0  0  0  0  0  0  0  0
   -4.1546   -4.1397    0.0676 H   0  0  0  0  0  0  0  0  0  0  0  0
   -6.2886   -5.3201    0.1300 H   0  0  0  0  0  0  0  0  0  0  0  0
   -8.3995   -1.5691    0.0655 H   0  0  0  0  0  0  0  0  0  0  0  0
   -6.2586   -0.3623    0.0029 H   0  0  0  0  0  0  0  0  0  0  0  0
   -1.6151   -1.6518   -2.3630 H   0  0  0  0  0  0  0  0  0  0  0  0
    0.7580    0.1372   -2.7737 H   0  0  0  0  0  0  0  0  0  0  0  0
  1  2  1  0  0  0  0
  1 19  1  0  0  0  0
  2  3  1  0  0  0  0
  2 17  2  0  0  0  0
  3  4  2  0  0  0  0
  3 20  1  0  0  0  0
  4  5  1  0  0  0  0
  4 21  1  0  0  0  0
  5  6  1  0  0  0  0
  5 15  2  0  0  0  0
  6  7  1  0  0  0  0
  6 22  1  0  0  0  0
  6 23  1  0  0  0  0
  7  8  1  0  0  0  0
  7 24  1  0  0  0  0
  7 25  1  0  0  0  0
  8  9  1  0  0  0  0
  8 14  2  0  0  0  0
  9 10  2  0  0  0  0
  9 26  1  0  0  0  0
 10 11  1  0  0  0  0
 10 27  1  0  0  0  0
 11 12  1  0  0  0  0
 11 13  2  0  0  0  0
 13 14  1  0  0  0  0
 13 28  1  0  0  0  0
 14 29  1  0  0  0  0
 15 16  1  0  0  0  0
 15 17  1  0  0  0  0
 16 30  1  0  0  0  0
 17 18  1  0  0  0  0
 18 31  1  0  0  0  0
M  END
>  <Line_Number>
2


> <IC50>
48000

$$$$
