145958045.0
 OpenBabel09092522113D

 26 26  0  0  0  0  0  0  0  0999 V2000
    1.0533   -0.4077    0.1280 C   0  0  0  0  0  0  0  0  0  0  0  0
    2.3932    0.0654    0.0533 O   0  0  0  0  0  0  0  0  0  0  0  0
    3.0973    0.1196    1.2342 C   0  0  0  0  0  0  0  0  0  0  0  0
    2.7696   -0.6830    2.3419 C   0  0  0  0  0  0  0  0  0  0  0  0
    3.5440   -0.6548    3.5010 C   0  0  0  0  0  0  0  0  0  0  0  0
    4.6685    0.1550    3.5600 C   0  0  0  0  0  0  0  0  0  0  0  0
    5.0080    0.9490    2.4638 C   0  0  0  0  0  0  0  0  0  0  0  0
    4.2172    0.9832    1.2978 C   0  0  0  0  0  0  0  0  0  0  0  0
    4.6803    1.8010    0.2448 N   0  0  0  0  0  0  0  0  0  0  0  0
    3.6852    2.3942   -0.6551 C   0  0  0  0  0  0  0  0  0  0  0  0
    4.2018    3.7223   -1.2211 C   0  0  0  0  0  0  0  0  0  0  0  0
    5.0119    4.4448   -0.6411 O   0  0  0  0  0  0  0  0  0  0  0  0
    3.6392    4.0776   -2.4281 N   0  0  0  0  0  0  0  0  0  0  0  0
    4.1321    5.2675   -3.0131 O   0  0  0  0  0  0  0  0  0  0  0  0
    0.6017   -0.2883   -0.8619 H   0  0  0  0  0  0  0  0  0  0  0  0
    0.4679    0.1868    0.8376 H   0  0  0  0  0  0  0  0  0  0  0  0
    1.0135   -1.4732    0.3738 H   0  0  0  0  0  0  0  0  0  0  0  0
    1.9285   -1.3658    2.3233 H   0  0  0  0  0  0  0  0  0  0  0  0
    3.2802   -1.2854    4.3466 H   0  0  0  0  0  0  0  0  0  0  0  0
    5.2908    0.1642    4.4507 H   0  0  0  0  0  0  0  0  0  0  0  0
    5.9050    1.5606    2.5283 H   0  0  0  0  0  0  0  0  0  0  0  0
    5.3269    2.5173    0.5816 H   0  0  0  0  0  0  0  0  0  0  0  0
    2.7523    2.6329   -0.1299 H   0  0  0  0  0  0  0  0  0  0  0  0
    3.4867    1.7115   -1.4870 H   0  0  0  0  0  0  0  0  0  0  0  0
    3.2376    3.3973   -3.0652 H   0  0  0  0  0  0  0  0  0  0  0  0
    4.7503    5.6044   -2.3280 H   0  0  0  0  0  0  0  0  0  0  0  0
  1  2  1  0  0  0  0
  1 15  1  0  0  0  0
  1 16  1  0  0  0  0
  1 17  1  0  0  0  0
  2  3  1  0  0  0  0
  3  4  1  0  0  0  0
  3  8  2  0  0  0  0
  4  5  2  0  0  0  0
  4 18  1  0  0  0  0
  5  6  1  0  0  0  0
  5 19  1  0  0  0  0
  6  7  2  0  0  0  0
  6 20  1  0  0  0  0
  7  8  1  0  0  0  0
  7 21  1  0  0  0  0
  8  9  1  0  0  0  0
  9 10  1  0  0  0  0
  9 22  1  0  0  0  0
 10 11  1  0  0  0  0
 10 23  1  0  0  0  0
 10 24  1  0  0  0  0
 11 12  2  0  0  0  0
 11 13  1  0  0  0  0
 13 14  1  0  0  0  0
 13 25  1  0  0  0  0
 14 26  1  0  0  0  0
M  END
>  <Line_Number>
302


> <IC50>
152000

$$$$
