382975.0
 OpenBabel09092522103D

 32 34  0  0  1  0  0  0  0  0999 V2000
    1.7584    0.1080    0.1118 O   0  0  0  0  0  0  0  0  0  0  0  0
    0.4879   -0.3558    0.2743 C   0  0  0  0  0  0  0  0  0  0  0  0
    0.1856   -1.7146    0.2121 C   0  0  0  0  0  0  0  0  0  0  0  0
   -1.1434   -2.1435    0.3221 C   0  0  0  0  0  0  0  0  0  0  0  0
   -2.1651   -1.2105    0.5077 C   0  0  0  0  0  0  0  0  0  0  0  0
   -3.6397   -1.5315    0.4337 C   0  0  3  0  0  0  0  0  0  0  0  0
   -4.2194   -2.9293    0.7946 C   0  0  0  0  0  0  0  0  0  0  0  0
   -5.4371   -3.3191    0.0832 O   0  0  0  0  0  0  0  0  0  0  0  0
   -6.2175   -2.2488   -0.2782 C   0  0  0  0  0  0  0  0  0  0  0  0
   -7.5908   -2.2877   -0.0936 C   0  0  0  0  0  0  0  0  0  0  0  0
   -8.3088   -1.0976   -0.2270 C   0  0  0  0  0  0  0  0  0  0  0  0
   -9.6520   -1.0497   -0.0005 O   0  0  0  0  0  0  0  0  0  0  0  0
   -7.6759    0.0996   -0.5600 C   0  0  0  0  0  0  0  0  0  0  0  0
   -6.3206    0.1001   -0.8636 C   0  0  0  0  0  0  0  0  0  0  0  0
   -5.6072   -1.0914   -0.7638 C   0  0  0  0  0  0  0  0  0  0  0  0
   -4.1332   -1.1582   -0.9608 C   0  0  0  0  0  0  0  0  0  0  0  0
   -1.8233    0.1572    0.6126 C   0  0  0  0  0  0  0  0  0  0  0  0
   -0.5066    0.5836    0.4839 C   0  0  0  0  0  0  0  0  0  0  0  0
    2.3355   -0.6422   -0.1060 H   0  0  0  0  0  0  0  0  0  0  0  0
    0.9647   -2.4522    0.0476 H   0  0  0  0  0  0  0  0  0  0  0  0
   -1.3589   -3.2026    0.2139 H   0  0  0  0  0  0  0  0  0  0  0  0
   -4.1051   -0.8517    1.1684 H   0  0  0  0  0  0  0  0  0  0  0  0
   -4.4620   -2.9529    1.8655 H   0  0  0  0  0  0  0  0  0  0  0  0
   -3.4959   -3.7307    0.6245 H   0  0  0  0  0  0  0  0  0  0  0  0
   -8.0689   -3.2103    0.2100 H   0  0  0  0  0  0  0  0  0  0  0  0
   -9.9779   -1.9605    0.1296 H   0  0  0  0  0  0  0  0  0  0  0  0
   -8.2348    1.0316   -0.5719 H   0  0  0  0  0  0  0  0  0  0  0  0
   -5.8140    1.0292   -1.1130 H   0  0  0  0  0  0  0  0  0  0  0  0
   -3.7379   -0.2092   -1.3369 H   0  0  0  0  0  0  0  0  0  0  0  0
   -3.8697   -1.9276   -1.7016 H   0  0  0  0  0  0  0  0  0  0  0  0
   -2.6022    0.9100    0.7379 H   0  0  0  0  0  0  0  0  0  0  0  0
   -0.2654    1.6428    0.5140 H   0  0  0  0  0  0  0  0  0  0  0  0
  1  2  1  0  0  0  0
  1 19  1  0  0  0  0
  2  3  1  0  0  0  0
  2 18  2  0  0  0  0
  3  4  2  0  0  0  0
  3 20  1  0  0  0  0
  4  5  1  0  0  0  0
  4 21  1  0  0  0  0
  5  6  1  0  0  0  0
  5 17  2  0  0  0  0
  6  7  1  0  0  0  0
  6 16  1  0  0  0  0
  6 22  1  0  0  0  0
  7  8  1  0  0  0  0
  7 23  1  0  0  0  0
  7 24  1  0  0  0  0
  8  9  1  0  0  0  0
  9 10  1  0  0  0  0
  9 15  2  0  0  0  0
 10 11  2  0  0  0  0
 10 25  1  0  0  0  0
 11 12  1  0  0  0  0
 11 13  1  0  0  0  0
 12 26  1  0  0  0  0
 13 14  2  0  0  0  0
 13 27  1  0  0  0  0
 14 15  1  0  0  0  0
 14 28  1  0  0  0  0
 15 16  1  0  0  0  0
 16 29  1  0  0  0  0
 16 30  1  0  0  0  0
 17 18  1  0  0  0  0
 17 31  1  0  0  0  0
 18 32  1  0  0  0  0
M  END
>  <Line_Number>
30


> <IC50>
92900

$$$$
