13940833.0
 OpenBabel09092522103D

 33 35  0  0  0  0  0  0  0  0999 V2000
    1.8861    0.7764   -0.7183 C   0  0  0  0  0  0  0  0  0  0  0  0
    2.7467   -0.2020   -0.1487 O   0  0  0  0  0  0  0  0  0  0  0  0
    3.4912   -0.9682   -1.0022 C   0  0  0  0  0  0  0  0  0  0  0  0
    3.5364   -0.8433   -2.3913 C   0  0  0  0  0  0  0  0  0  0  0  0
    4.3460   -1.6973   -3.1491 C   0  0  0  0  0  0  0  0  0  0  0  0
    5.1048   -2.6931   -2.5269 C   0  0  0  0  0  0  0  0  0  0  0  0
    5.7738   -3.7072   -3.3448 C   0  0  0  0  0  0  0  0  0  0  0  0
    7.0156   -3.5888   -3.8508 C   0  0  0  0  0  0  0  0  0  0  0  0
    7.6262   -4.5693   -4.6199 O   0  0  0  0  0  0  0  0  0  0  0  0
    7.1044   -5.8438   -4.5534 C   0  0  0  0  0  0  0  0  0  0  0  0
    7.8799   -6.8962   -5.0343 C   0  0  0  0  0  0  0  0  0  0  0  0
    7.4300   -8.2028   -4.8525 C   0  0  0  0  0  0  0  0  0  0  0  0
    8.1483   -9.2727   -5.2886 O   0  0  0  0  0  0  0  0  0  0  0  0
    6.2287   -8.4680   -4.2022 C   0  0  0  0  0  0  0  0  0  0  0  0
    5.4258   -7.4132   -3.7773 C   0  0  0  0  0  0  0  0  0  0  0  0
    5.8547   -6.0957   -3.9702 C   0  0  0  0  0  0  0  0  0  0  0  0
    4.9684   -4.9402   -3.6100 C   0  0  0  0  0  0  0  0  0  0  0  0
    5.0700   -2.8092   -1.1333 C   0  0  0  0  0  0  0  0  0  0  0  0
    4.2663   -1.9502   -0.3800 C   0  0  0  0  0  0  0  0  0  0  0  0
    1.5443    1.4270    0.0917 H   0  0  0  0  0  0  0  0  0  0  0  0
    1.0062    0.2987   -1.1637 H   0  0  0  0  0  0  0  0  0  0  0  0
    2.4000    1.4109   -1.4432 H   0  0  0  0  0  0  0  0  0  0  0  0
    2.9436   -0.1053   -2.9232 H   0  0  0  0  0  0  0  0  0  0  0  0
    4.3477   -1.6071   -4.2340 H   0  0  0  0  0  0  0  0  0  0  0  0
    7.6617   -2.7323   -3.7277 H   0  0  0  0  0  0  0  0  0  0  0  0
    8.8243   -6.6861   -5.5245 H   0  0  0  0  0  0  0  0  0  0  0  0
    8.9311   -8.9502   -5.7663 H   0  0  0  0  0  0  0  0  0  0  0  0
    5.9121   -9.4938   -4.0370 H   0  0  0  0  0  0  0  0  0  0  0  0
    4.4761   -7.6195   -3.2913 H   0  0  0  0  0  0  0  0  0  0  0  0
    4.3618   -5.2054   -2.7381 H   0  0  0  0  0  0  0  0  0  0  0  0
    4.2871   -4.7467   -4.4489 H   0  0  0  0  0  0  0  0  0  0  0  0
    5.6359   -3.5909   -0.6307 H   0  0  0  0  0  0  0  0  0  0  0  0
    4.2285   -2.0593    0.6977 H   0  0  0  0  0  0  0  0  0  0  0  0
  1  2  1  0  0  0  0
  1 20  1  0  0  0  0
  1 21  1  0  0  0  0
  1 22  1  0  0  0  0
  2  3  1  0  0  0  0
  3  4  1  0  0  0  0
  3 19  2  0  0  0  0
  4  5  2  0  0  0  0
  4 23  1  0  0  0  0
  5  6  1  0  0  0  0
  5 24  1  0  0  0  0
  6  7  1  0  0  0  0
  6 18  2  0  0  0  0
  7  8  2  0  0  0  0
  7 17  1  0  0  0  0
  8  9  1  0  0  0  0
  8 25  1  0  0  0  0
  9 10  1  0  0  0  0
 10 11  1  0  0  0  0
 10 16  2  0  0  0  0
 11 12  2  0  0  0  0
 11 26  1  0  0  0  0
 12 13  1  0  0  0  0
 12 14  1  0  0  0  0
 13 27  1  0  0  0  0
 14 15  2  0  0  0  0
 14 28  1  0  0  0  0
 15 16  1  0  0  0  0
 15 29  1  0  0  0  0
 16 17  1  0  0  0  0
 17 30  1  0  0  0  0
 17 31  1  0  0  0  0
 18 19  1  0  0  0  0
 18 32  1  0  0  0  0
 19 33  1  0  0  0  0
M  END
>  <Line_Number>
31


> <IC50>
86200

$$$$
