5280343.0
 OpenBabel09092522113D

 32 34  0  0  0  0  0  0  0  0999 V2000
    2.0179   -1.7454    0.1029 O   0  0  0  0  0  0  0  0  0  0  0  0
    1.5261   -0.6220    0.0535 C   0  0  0  0  0  0  0  0  0  0  0  0
    2.4549    0.5313   -0.0067 C   0  0  0  0  0  0  0  0  0  0  0  0
    3.8074    0.2439   -0.0542 O   0  0  0  0  0  0  0  0  0  0  0  0
    1.9505    1.7740   -0.0295 C   0  0  0  0  0  0  0  0  0  0  0  0
    2.8308    2.9453   -0.1609 C   0  0  0  0  0  0  0  0  0  0  0  0
    3.3680    3.5786    0.9723 C   0  0  0  0  0  0  0  0  0  0  0  0
    4.2721    4.6418    0.8344 C   0  0  0  0  0  0  0  0  0  0  0  0
    4.6344    5.0637   -0.4391 C   0  0  0  0  0  0  0  0  0  0  0  0
    5.5272    6.0802   -0.6408 O   0  0  0  0  0  0  0  0  0  0  0  0
    4.0962    4.4438   -1.5636 C   0  0  0  0  0  0  0  0  0  0  0  0
    4.4681    4.8550   -2.8122 O   0  0  0  0  0  0  0  0  0  0  0  0
    3.1965    3.3939   -1.4375 C   0  0  0  0  0  0  0  0  0  0  0  0
    0.6002    2.0735    0.0255 O   0  0  0  0  0  0  0  0  0  0  0  0
   -0.2997    1.0303    0.0310 C   0  0  0  0  0  0  0  0  0  0  0  0
   -1.6535    1.3814    0.0207 C   0  0  0  0  0  0  0  0  0  0  0  0
   -2.6177    0.3778   -0.0023 C   0  0  0  0  0  0  0  0  0  0  0  0
   -3.9502    0.6663   -0.0240 O   0  0  0  0  0  0  0  0  0  0  0  0
   -2.2549   -0.9648   -0.0107 C   0  0  0  0  0  0  0  0  0  0  0  0
   -0.9036   -1.3120    0.0090 C   0  0  0  0  0  0  0  0  0  0  0  0
   -0.5642   -2.6346   -0.0070 O   0  0  0  0  0  0  0  0  0  0  0  0
    0.0829   -0.3163    0.0336 C   0  0  0  0  0  0  0  0  0  0  0  0
    3.8482   -0.7371   -0.0378 H   0  0  0  0  0  0  0  0  0  0  0  0
    3.1037    3.2323    1.9686 H   0  0  0  0  0  0  0  0  0  0  0  0
    4.6870    5.1064    1.7229 H   0  0  0  0  0  0  0  0  0  0  0  0
    5.8264    6.3983    0.2284 H   0  0  0  0  0  0  0  0  0  0  0  0
    5.1301    5.5567   -2.6519 H   0  0  0  0  0  0  0  0  0  0  0  0
    2.8076    2.9136   -2.3307 H   0  0  0  0  0  0  0  0  0  0  0  0
   -1.9349    2.4298    0.0244 H   0  0  0  0  0  0  0  0  0  0  0  0
   -4.0697    1.6303   -0.0411 H   0  0  0  0  0  0  0  0  0  0  0  0
   -3.0330   -1.7222   -0.0362 H   0  0  0  0  0  0  0  0  0  0  0  0
   -1.3614   -3.1880   -0.0295 H   0  0  0  0  0  0  0  0  0  0  0  0
  1  2  2  0  0  0  0
  2  3  1  0  0  0  0
  2 22  1  0  0  0  0
  3  4  1  0  0  0  0
  3  5  2  0  0  0  0
  4 23  1  0  0  0  0
  5  6  1  0  0  0  0
  5 14  1  0  0  0  0
  6  7  1  0  0  0  0
  6 13  2  0  0  0  0
  7  8  2  0  0  0  0
  7 24  1  0  0  0  0
  8  9  1  0  0  0  0
  8 25  1  0  0  0  0
  9 10  1  0  0  0  0
  9 11  2  0  0  0  0
 10 26  1  0  0  0  0
 11 12  1  0  0  0  0
 11 13  1  0  0  0  0
 12 27  1  0  0  0  0
 13 28  1  0  0  0  0
 14 15  1  0  0  0  0
 15 16  1  0  0  0  0
 15 22  2  0  0  0  0
 16 17  2  0  0  0  0
 16 29  1  0  0  0  0
 17 18  1  0  0  0  0
 17 19  1  0  0  0  0
 18 30  1  0  0  0  0
 19 20  2  0  0  0  0
 19 31  1  0  0  0  0
 20 21  1  0  0  0  0
 20 22  1  0  0  0  0
 21 32  1  0  0  0  0
M  END
>  <Line_Number>
323


> <IC50>
7170

$$$$
