132601482.0
 OpenBabel09092522113D

 38 39  0  0  1  0  0  0  0  0999 V2000
    0.5592    0.1508    1.5661 O   0  0  0  0  0  0  0  0  0  0  0  0
    0.5568    0.5672    0.4072 C   0  0  0  0  0  0  0  0  0  0  0  0
    0.8629    2.0105    0.0377 C   0  0  0  0  0  0  0  0  0  0  0  0
    2.0997    2.0880   -0.8509 C   0  0  3  0  0  0  0  0  0  0  0  0
    1.7972    1.3580   -2.0629 O   0  0  0  0  0  0  0  0  0  0  0  0
    2.6756    3.4310   -1.2856 C   0  0  0  0  0  0  0  0  0  0  0  0
    3.8888    3.3376   -2.0193 C   0  0  0  0  0  0  0  0  0  0  0  0
    4.5219    4.4608   -2.5504 C   0  0  0  0  0  0  0  0  0  0  0  0
    5.9959    4.3021   -3.4187 Cl  0  0  0  0  0  0  0  0  0  0  0  0
    3.9508    5.7094   -2.3880 C   0  0  0  0  0  0  0  0  0  0  0  0
    2.7559    5.8231   -1.6787 C   0  0  0  0  0  0  0  0  0  0  0  0
    2.1251    4.7106   -1.0762 C   0  0  0  0  0  0  0  0  0  0  0  0
    0.9964    4.8543   -0.2872 O   0  0  0  0  0  0  0  0  0  0  0  0
    0.7632    6.2149    0.1195 C   0  0  0  0  0  0  0  0  0  0  0  0
   -0.2415    6.4580    1.2190 C   0  0  0  0  0  0  0  0  0  0  0  0
    0.0865    7.3950    2.2178 C   0  0  0  0  0  0  0  0  0  0  0  0
   -0.8655    7.8342    3.1346 C   0  0  0  0  0  0  0  0  0  0  0  0
   -2.1628    7.3380    3.0670 C   0  0  0  0  0  0  0  0  0  0  0  0
   -2.4982    6.3958    2.0935 C   0  0  0  0  0  0  0  0  0  0  0  0
   -1.5431    5.9531    1.1716 C   0  0  0  0  0  0  0  0  0  0  0  0
    0.2328   -0.2398   -0.6645 N   0  0  0  0  0  0  0  0  0  0  0  0
    0.0490   -1.6131   -0.3580 O   0  0  0  0  0  0  0  0  0  0  0  0
    1.0099    2.5684    0.9679 H   0  0  0  0  0  0  0  0  0  0  0  0
   -0.0222    2.4063   -0.4730 H   0  0  0  0  0  0  0  0  0  0  0  0
    2.9060    1.5356   -0.3474 H   0  0  0  0  0  0  0  0  0  0  0  0
    1.5540    2.0127   -2.7439 H   0  0  0  0  0  0  0  0  0  0  0  0
    4.3419    2.3616   -2.1883 H   0  0  0  0  0  0  0  0  0  0  0  0
    4.4224    6.5971   -2.8017 H   0  0  0  0  0  0  0  0  0  0  0  0
    2.3598    6.8332   -1.6069 H   0  0  0  0  0  0  0  0  0  0  0  0
    0.4042    6.7875   -0.7465 H   0  0  0  0  0  0  0  0  0  0  0  0
    1.7128    6.6370    0.4732 H   0  0  0  0  0  0  0  0  0  0  0  0
    1.0852    7.8262    2.2622 H   0  0  0  0  0  0  0  0  0  0  0  0
   -0.5987    8.5801    3.8788 H   0  0  0  0  0  0  0  0  0  0  0  0
   -2.9153    7.7015    3.7618 H   0  0  0  0  0  0  0  0  0  0  0  0
   -3.5203    6.0261    2.0376 H   0  0  0  0  0  0  0  0  0  0  0  0
   -1.8359    5.2521    0.3925 H   0  0  0  0  0  0  0  0  0  0  0  0
    0.6773   -0.0395   -1.5604 H   0  0  0  0  0  0  0  0  0  0  0  0
    0.1444   -1.6291    0.6191 H   0  0  0  0  0  0  0  0  0  0  0  0
  1  2  2  0  0  0  0
  2  3  1  0  0  0  0
  2 21  1  0  0  0  0
  3  4  1  0  0  0  0
  3 23  1  0  0  0  0
  3 24  1  0  0  0  0
  4  5  1  0  0  0  0
  4  6  1  0  0  0  0
  4 25  1  0  0  0  0
  5 26  1  0  0  0  0
  6  7  1  0  0  0  0
  6 12  2  0  0  0  0
  7  8  2  0  0  0  0
  7 27  1  0  0  0  0
  8  9  1  0  0  0  0
  8 10  1  0  0  0  0
 10 11  2  0  0  0  0
 10 28  1  0  0  0  0
 11 12  1  0  0  0  0
 11 29  1  0  0  0  0
 12 13  1  0  0  0  0
 13 14  1  0  0  0  0
 14 15  1  0  0  0  0
 14 30  1  0  0  0  0
 14 31  1  0  0  0  0
 15 16  1  0  0  0  0
 15 20  2  0  0  0  0
 16 17  2  0  0  0  0
 16 32  1  0  0  0  0
 17 18  1  0  0  0  0
 17 33  1  0  0  0  0
 18 19  2  0  0  0  0
 18 34  1  0  0  0  0
 19 20  1  0  0  0  0
 19 35  1  0  0  0  0
 20 36  1  0  0  0  0
 21 22  1  0  0  0  0
 21 37  1  0  0  0  0
 22 38  1  0  0  0  0
M  END
>  <Line_Number>
324


> <IC50>
150

$$$$
