3657.0
 OpenBabel09092522113D

  9  8  0  0  0  0  0  0  0  0999 V2000
    1.1056    0.0807    0.0156 N   0  0  0  0  0  0  0  0  0  0  0  0
    2.4576    0.0715    0.0587 C   0  0  0  0  0  0  0  0  0  0  0  0
    3.0768   -0.1706    1.0885 O   0  0  0  0  0  0  0  0  0  0  0  0
    3.0609    0.3514   -1.1271 N   0  0  0  0  0  0  0  0  0  0  0  0
    4.4716    0.3575   -1.1491 O   0  0  0  0  0  0  0  0  0  0  0  0
    0.6088   -0.1202    0.8730 H   0  0  0  0  0  0  0  0  0  0  0  0
    0.5802    0.2787   -0.8202 H   0  0  0  0  0  0  0  0  0  0  0  0
    2.5798    0.5529   -1.9915 H   0  0  0  0  0  0  0  0  0  0  0  0
    4.6912    0.1390   -0.2167 H   0  0  0  0  0  0  0  0  0  0  0  0
  1  2  1  0  0  0  0
  1  6  1  0  0  0  0
  1  7  1  0  0  0  0
  2  3  2  0  0  0  0
  2  4  1  0  0  0  0
  4  5  1  0  0  0  0
  4  8  1  0  0  0  0
  5  9  1  0  0  0  0
M  END
>  <Line_Number>
326


> <IC50>
88750

$$$$
