168476030.0
 OpenBabel09092522113D

 28 28  0  0  1  0  0  0  0  0999 V2000
    1.0980   -0.0096    0.7981 O   0  0  0  0  0  0  0  0  0  0  0  0
    2.1418    0.0215    0.1595 C   0  0  0  0  0  0  0  0  0  0  0  0
    2.5702   -1.0571   -0.5241 O   0  0  0  0  0  0  0  0  0  0  0  0
    3.0140    1.2693    0.0678 C   0  0  3  0  0  0  0  0  0  0  0  0
    2.6273    2.2261    1.2155 C   0  0  0  0  0  0  0  0  0  0  0  0
    2.7243    1.3483    2.8183 P   0  0  0  0  0  0  0  0  0  0  0  0
    4.1474    1.8539    3.0625 O   0  0  0  0  0  0  0  0  0  0  0  0
    1.7935    2.4905    3.5177 O   0  0  0  0  0  0  0  0  0  0  0  0
    2.8159    0.5184    4.3335 O   0  0  0  0  0  0  0  0  0  0  0  0
    4.5202    1.0428    0.0169 C   0  0  0  0  0  0  0  0  0  0  0  0
    5.1622   -0.0227    0.6835 C   0  0  0  0  0  0  0  0  0  0  0  0
    6.5555   -0.1573    0.6538 C   0  0  0  0  0  0  0  0  0  0  0  0
    7.3156    0.7804   -0.0333 C   0  0  0  0  0  0  0  0  0  0  0  0
    8.6752    0.7176   -0.0835 O   0  0  0  0  0  0  0  0  0  0  0  0
    6.6922    1.8371   -0.6875 C   0  0  0  0  0  0  0  0  0  0  0  0
    7.4531    2.7629   -1.3455 O   0  0  0  0  0  0  0  0  0  0  0  0
    5.3130    1.9763   -0.6812 C   0  0  0  0  0  0  0  0  0  0  0  0
    3.4099   -0.9315   -1.0144 H   0  0  0  0  0  0  0  0  0  0  0  0
    2.7209    1.7435   -0.8801 H   0  0  0  0  0  0  0  0  0  0  0  0
    1.5847    2.5373    1.0687 H   0  0  0  0  0  0  0  0  0  0  0  0
    3.2327    3.1404    1.2123 H   0  0  0  0  0  0  0  0  0  0  0  0
    2.3296    3.1837    3.9374 H   0  0  0  0  0  0  0  0  0  0  0  0
    3.6473    0.8384    4.7386 H   0  0  0  0  0  0  0  0  0  0  0  0
    4.5978   -0.7517    1.2616 H   0  0  0  0  0  0  0  0  0  0  0  0
    7.0247   -0.9877    1.1784 H   0  0  0  0  0  0  0  0  0  0  0  0
    8.9721   -0.0119    0.4918 H   0  0  0  0  0  0  0  0  0  0  0  0
    8.3745    2.4796   -1.1876 H   0  0  0  0  0  0  0  0  0  0  0  0
    4.8666    2.8352   -1.1726 H   0  0  0  0  0  0  0  0  0  0  0  0
  1  2  2  0  0  0  0
  2  3  1  0  0  0  0
  2  4  1  0  0  0  0
  3 18  1  0  0  0  0
  4  5  1  0  0  0  0
  4 10  1  0  0  0  0
  4 19  1  0  0  0  0
  5  6  1  0  0  0  0
  5 20  1  0  0  0  0
  5 21  1  0  0  0  0
  6  7  2  0  0  0  0
  6  8  1  0  0  0  0
  6  9  1  0  0  0  0
  8 22  1  0  0  0  0
  9 23  1  0  0  0  0
 10 11  1  0  0  0  0
 10 17  2  0  0  0  0
 11 12  2  0  0  0  0
 11 24  1  0  0  0  0
 12 13  1  0  0  0  0
 12 25  1  0  0  0  0
 13 14  1  0  0  0  0
 13 15  2  0  0  0  0
 14 26  1  0  0  0  0
 15 16  1  0  0  0  0
 15 17  1  0  0  0  0
 16 27  1  0  0  0  0
 17 28  1  0  0  0  0
M  END
>  <Line_Number>
329


> <IC50>
1555

$$$$
