3584988.0
 OpenBabel09092522103D

 36 37  0  0  1  0  0  0  0  0999 V2000
    2.5757   -1.5571   -0.5024 C   0  0  0  0  0  0  0  0  0  0  0  0
    2.1225   -0.4242    0.2290 O   0  0  0  0  0  0  0  0  0  0  0  0
    2.9561    0.0611    1.1990 C   0  0  0  0  0  0  0  0  0  0  0  0
    4.2364   -0.4039    1.4854 C   0  0  0  0  0  0  0  0  0  0  0  0
    4.9872    0.1918    2.5052 C   0  0  0  0  0  0  0  0  0  0  0  0
    4.4642    1.2387    3.2805 C   0  0  0  0  0  0  0  0  0  0  0  0
    5.2884    1.8335    4.4178 C   0  0  3  0  0  0  0  0  0  0  0  0
    5.5590    3.3241    4.1557 C   0  0  0  0  0  0  0  0  0  0  0  0
    4.6409    1.6329    5.7975 C   0  0  0  0  0  0  0  0  0  0  0  0
    4.3507    2.5858    6.5274 O   0  0  0  0  0  0  0  0  0  0  0  0
    4.3111    0.2546    6.2904 C   0  0  0  0  0  0  0  0  0  0  0  0
    3.2258    0.1335    7.1766 C   0  0  0  0  0  0  0  0  0  0  0  0
    2.8082   -1.1201    7.6351 C   0  0  0  0  0  0  0  0  0  0  0  0
    3.4766   -2.2572    7.2027 C   0  0  0  0  0  0  0  0  0  0  0  0
    3.0941   -3.5062    7.5931 O   0  0  0  0  0  0  0  0  0  0  0  0
    4.5777   -2.1589    6.3624 C   0  0  0  0  0  0  0  0  0  0  0  0
    5.0064   -0.9033    5.9237 C   0  0  0  0  0  0  0  0  0  0  0  0
    6.1499   -0.8381    5.1784 O   0  0  0  0  0  0  0  0  0  0  0  0
    3.1804    1.7071    2.9771 C   0  0  0  0  0  0  0  0  0  0  0  0
    2.4403    1.1263    1.9408 C   0  0  0  0  0  0  0  0  0  0  0  0
    1.8091   -1.8059   -1.2426 H   0  0  0  0  0  0  0  0  0  0  0  0
    2.7004   -2.4249    0.1539 H   0  0  0  0  0  0  0  0  0  0  0  0
    3.5001   -1.3370   -1.0466 H   0  0  0  0  0  0  0  0  0  0  0  0
    4.6853   -1.2239    0.9353 H   0  0  0  0  0  0  0  0  0  0  0  0
    5.9915   -0.1803    2.6960 H   0  0  0  0  0  0  0  0  0  0  0  0
    6.2806    1.3721    4.4432 H   0  0  0  0  0  0  0  0  0  0  0  0
    4.6566    3.9348    4.2717 H   0  0  0  0  0  0  0  0  0  0  0  0
    5.9488    3.4865    3.1446 H   0  0  0  0  0  0  0  0  0  0  0  0
    6.3015    3.7042    4.8665 H   0  0  0  0  0  0  0  0  0  0  0  0
    2.6938    1.0227    7.5129 H   0  0  0  0  0  0  0  0  0  0  0  0
    1.9680   -1.1847    8.3193 H   0  0  0  0  0  0  0  0  0  0  0  0
    2.2999   -3.4314    8.1480 H   0  0  0  0  0  0  0  0  0  0  0  0
    5.0921   -3.0687    6.0621 H   0  0  0  0  0  0  0  0  0  0  0  0
    6.4252   -1.7412    4.9435 H   0  0  0  0  0  0  0  0  0  0  0  0
    2.7433    2.5307    3.5381 H   0  0  0  0  0  0  0  0  0  0  0  0
    1.4480    1.5073    1.7120 H   0  0  0  0  0  0  0  0  0  0  0  0
  1  2  1  0  0  0  0
  1 21  1  0  0  0  0
  1 22  1  0  0  0  0
  1 23  1  0  0  0  0
  2  3  1  0  0  0  0
  3  4  1  0  0  0  0
  3 20  2  0  0  0  0
  4  5  2  0  0  0  0
  4 24  1  0  0  0  0
  5  6  1  0  0  0  0
  5 25  1  0  0  0  0
  6  7  1  0  0  0  0
  6 19  2  0  0  0  0
  7  8  1  0  0  0  0
  7  9  1  0  0  0  0
  7 26  1  0  0  0  0
  8 27  1  0  0  0  0
  8 28  1  0  0  0  0
  8 29  1  0  0  0  0
  9 10  2  0  0  0  0
  9 11  1  0  0  0  0
 11 12  1  0  0  0  0
 11 17  2  0  0  0  0
 12 13  2  0  0  0  0
 12 30  1  0  0  0  0
 13 14  1  0  0  0  0
 13 31  1  0  0  0  0
 14 15  1  0  0  0  0
 14 16  2  0  0  0  0
 15 32  1  0  0  0  0
 16 17  1  0  0  0  0
 16 33  1  0  0  0  0
 17 18  1  0  0  0  0
 18 34  1  0  0  0  0
 19 20  1  0  0  0  0
 19 35  1  0  0  0  0
 20 36  1  0  0  0  0
M  END
>  <Line_Number>
32


> <IC50>
1050000

$$$$
