172455978.0
 OpenBabel09092522113D

 48 49  0  0  1  0  0  0  0  0999 V2000
    2.3789   -1.9820    4.7317 O   0  0  0  0  0  0  0  0  0  0  0  0
    3.4436   -1.4220    4.5042 C   0  0  0  0  0  0  0  0  0  0  0  0
    4.4700   -1.4644    5.3834 O   0  0  0  0  0  0  0  0  0  0  0  0
    3.7716   -0.7403    3.1748 C   0  0  3  0  0  0  0  0  0  0  0  0
    2.4766   -0.6707    2.3233 C   0  0  0  0  0  0  0  0  0  0  0  0
    1.2117    0.3890    2.9992 P   0  0  3  0  0  0  0  0  0  0  0  0
    1.4989    0.8800    4.3884 O   0  0  0  0  0  0  0  0  0  0  0  0
    1.2081    1.5873    1.9274 O   0  0  0  0  0  0  0  0  0  0  0  0
   -0.4943   -0.2200    2.9072 C   0  0  0  0  0  0  0  0  0  0  0  0
   -1.2532    0.2596    4.1711 C   0  0  3  0  0  0  0  0  0  0  0  0
   -1.1409    1.7888    4.3048 C   0  0  0  0  0  0  0  0  0  0  0  0
   -1.6920    2.5838    3.5565 O   0  0  0  0  0  0  0  0  0  0  0  0
   -0.3926    2.1879    5.3595 O   0  0  0  0  0  0  0  0  0  0  0  0
   -2.7197   -0.1044    4.3687 C   0  0  0  0  0  0  0  0  0  0  0  0
   -3.1834   -0.2346    5.6997 C   0  0  0  0  0  0  0  0  0  0  0  0
   -4.5430   -0.3623    5.9954 C   0  0  0  0  0  0  0  0  0  0  0  0
   -5.4559   -0.3652    4.9544 C   0  0  0  0  0  0  0  0  0  0  0  0
   -6.8024   -0.4539    5.1785 O   0  0  0  0  0  0  0  0  0  0  0  0
   -5.0160   -0.2492    3.6363 C   0  0  0  0  0  0  0  0  0  0  0  0
   -5.9357   -0.2285    2.6239 O   0  0  0  0  0  0  0  0  0  0  0  0
   -3.6616   -0.1151    3.3317 C   0  0  0  0  0  0  0  0  0  0  0  0
    4.5620    0.5656    3.2875 C   0  0  0  0  0  0  0  0  0  0  0  0
    4.4057    1.4613    4.3674 C   0  0  0  0  0  0  0  0  0  0  0  0
    5.1677    2.6338    4.4816 C   0  0  0  0  0  0  0  0  0  0  0  0
    6.1146    2.9181    3.5153 C   0  0  0  0  0  0  0  0  0  0  0  0
    6.9085    4.0282    3.5832 O   0  0  0  0  0  0  0  0  0  0  0  0
    6.2869    2.0540    2.4382 C   0  0  0  0  0  0  0  0  0  0  0  0
    7.2332    2.3385    1.4956 O   0  0  0  0  0  0  0  0  0  0  0  0
    5.5212    0.8954    2.3091 C   0  0  0  0  0  0  0  0  0  0  0  0
    5.2723   -0.9919    5.0835 H   0  0  0  0  0  0  0  0  0  0  0  0
    4.4371   -1.4605    2.6743 H   0  0  0  0  0  0  0  0  0  0  0  0
    2.0663   -1.6838    2.2103 H   0  0  0  0  0  0  0  0  0  0  0  0
    2.7361   -0.3421    1.3080 H   0  0  0  0  0  0  0  0  0  0  0  0
    0.7022    1.4787    1.0951 H   0  0  0  0  0  0  0  0  0  0  0  0
   -0.5002   -1.3142    2.8582 H   0  0  0  0  0  0  0  0  0  0  0  0
   -0.9691    0.1505    1.9918 H   0  0  0  0  0  0  0  0  0  0  0  0
   -0.7187   -0.2020    5.0140 H   0  0  0  0  0  0  0  0  0  0  0  0
    0.3619    1.5586    5.4889 H   0  0  0  0  0  0  0  0  0  0  0  0
   -2.4795   -0.1805    6.5303 H   0  0  0  0  0  0  0  0  0  0  0  0
   -4.8592   -0.4254    7.0316 H   0  0  0  0  0  0  0  0  0  0  0  0
   -6.9467   -0.4659    6.1414 H   0  0  0  0  0  0  0  0  0  0  0  0
   -6.7991   -0.2806    3.0805 H   0  0  0  0  0  0  0  0  0  0  0  0
   -3.3744    0.0476    2.2979 H   0  0  0  0  0  0  0  0  0  0  0  0
    3.6818    1.2675    5.1550 H   0  0  0  0  0  0  0  0  0  0  0  0
    5.0003    3.2926    5.3275 H   0  0  0  0  0  0  0  0  0  0  0  0
    6.6480    4.5400    4.3696 H   0  0  0  0  0  0  0  0  0  0  0  0
    7.6256    3.1863    1.7898 H   0  0  0  0  0  0  0  0  0  0  0  0
    5.6936    0.2505    1.4496 H   0  0  0  0  0  0  0  0  0  0  0  0
  1  2  2  0  0  0  0
  2  3  1  0  0  0  0
  2  4  1  0  0  0  0
  3 30  1  0  0  0  0
  4  5  1  0  0  0  0
  4 22  1  0  0  0  0
  4 31  1  0  0  0  0
  5  6  1  0  0  0  0
  5 32  1  0  0  0  0
  5 33  1  0  0  0  0
  6  7  2  0  0  0  0
  6  8  1  0  0  0  0
  6  9  1  0  0  0  0
  8 34  1  0  0  0  0
  9 10  1  0  0  0  0
  9 35  1  0  0  0  0
  9 36  1  0  0  0  0
 10 11  1  0  0  0  0
 10 14  1  0  0  0  0
 10 37  1  0  0  0  0
 11 12  2  0  0  0  0
 11 13  1  0  0  0  0
 13 38  1  0  0  0  0
 14 15  1  0  0  0  0
 14 21  2  0  0  0  0
 15 16  2  0  0  0  0
 15 39  1  0  0  0  0
 16 17  1  0  0  0  0
 16 40  1  0  0  0  0
 17 18  1  0  0  0  0
 17 19  2  0  0  0  0
 18 41  1  0  0  0  0
 19 20  1  0  0  0  0
 19 21  1  0  0  0  0
 20 42  1  0  0  0  0
 21 43  1  0  0  0  0
 22 23  1  0  0  0  0
 22 29  2  0  0  0  0
 23 24  2  0  0  0  0
 23 44  1  0  0  0  0
 24 25  1  0  0  0  0
 24 45  1  0  0  0  0
 25 26  1  0  0  0  0
 25 27  2  0  0  0  0
 26 46  1  0  0  0  0
 27 28  1  0  0  0  0
 27 29  1  0  0  0  0
 28 47  1  0  0  0  0
 29 48  1  0  0  0  0
M  END
>  <Line_Number>
330


> <IC50>
9950

$$$$
