44543377.0
 OpenBabel09092522113D

 25 25  0  0  0  0  0  0  0  0999 V2000
    5.3207    1.6688    2.4205 O   0  0  0  0  0  0  0  0  0  0  0  0
    4.8739    0.7029    1.2959 P   0  0  0  0  0  0  0  0  0  0  0  0
    3.7623   -0.0158    2.2668 O   0  0  0  0  0  0  0  0  0  0  0  0
    3.8601    1.8289    0.6614 O   0  0  0  0  0  0  0  0  0  0  0  0
    4.3457   -0.4387   -0.0333 C   0  0  0  0  0  0  0  0  0  0  0  0
    4.9572   -0.1006   -1.3869 C   0  0  0  0  0  0  0  0  0  0  0  0
    6.4628   -0.1548   -1.3692 C   0  0  0  0  0  0  0  0  0  0  0  0
    7.2220    0.9870   -1.6740 C   0  0  0  0  0  0  0  0  0  0  0  0
    8.6207    0.9370   -1.6662 C   0  0  0  0  0  0  0  0  0  0  0  0
    9.2550   -0.2577   -1.3507 C   0  0  0  0  0  0  0  0  0  0  0  0
   10.6169   -0.3711   -1.3292 O   0  0  0  0  0  0  0  0  0  0  0  0
    8.5078   -1.3914   -1.0486 C   0  0  0  0  0  0  0  0  0  0  0  0
    9.1310   -2.5644   -0.7367 O   0  0  0  0  0  0  0  0  0  0  0  0
    7.1217   -1.3529   -1.0608 C   0  0  0  0  0  0  0  0  0  0  0  0
    3.7276    0.4942    3.1007 H   0  0  0  0  0  0  0  0  0  0  0  0
    3.8476    2.5820    1.2865 H   0  0  0  0  0  0  0  0  0  0  0  0
    3.2522   -0.4339   -0.1284 H   0  0  0  0  0  0  0  0  0  0  0  0
    4.6279   -1.4520    0.2757 H   0  0  0  0  0  0  0  0  0  0  0  0
    4.6206    0.8937   -1.7030 H   0  0  0  0  0  0  0  0  0  0  0  0
    4.5924   -0.8059   -2.1436 H   0  0  0  0  0  0  0  0  0  0  0  0
    6.7291    1.9243   -1.9274 H   0  0  0  0  0  0  0  0  0  0  0  0
    9.1856    1.8314   -1.9098 H   0  0  0  0  0  0  0  0  0  0  0  0
   10.9954    0.4882   -1.5827 H   0  0  0  0  0  0  0  0  0  0  0  0
   10.0842   -2.3578   -0.7996 H   0  0  0  0  0  0  0  0  0  0  0  0
    6.5672   -2.2604   -0.8371 H   0  0  0  0  0  0  0  0  0  0  0  0
  1  2  2  0  0  0  0
  2  3  1  0  0  0  0
  2  4  1  0  0  0  0
  2  5  1  0  0  0  0
  3 15  1  0  0  0  0
  4 16  1  0  0  0  0
  5  6  1  0  0  0  0
  5 17  1  0  0  0  0
  5 18  1  0  0  0  0
  6  7  1  0  0  0  0
  6 19  1  0  0  0  0
  6 20  1  0  0  0  0
  7  8  1  0  0  0  0
  7 14  2  0  0  0  0
  8  9  2  0  0  0  0
  8 21  1  0  0  0  0
  9 10  1  0  0  0  0
  9 22  1  0  0  0  0
 10 11  1  0  0  0  0
 10 12  2  0  0  0  0
 11 23  1  0  0  0  0
 12 13  1  0  0  0  0
 12 14  1  0  0  0  0
 13 24  1  0  0  0  0
 14 25  1  0  0  0  0
M  END
>  <Line_Number>
331


> <IC50>
17850

$$$$
