172461878.0
 OpenBabel09092522113D

 54 55  0  0  1  0  0  0  0  0999 V2000
    9.8997    0.4748    0.1689 C   0  0  0  0  0  0  0  0  0  0  0  0
    8.6666   -0.0460    0.6932 O   0  0  0  0  0  0  0  0  0  0  0  0
    7.5110    0.6031    0.3777 C   0  0  0  0  0  0  0  0  0  0  0  0
    7.4277    1.6376   -0.2818 O   0  0  0  0  0  0  0  0  0  0  0  0
    6.2959   -0.1541    0.8928 C   0  0  3  0  0  0  0  0  0  0  0  0
    5.0841    0.7805    1.1752 C   0  0  0  0  0  0  0  0  0  0  0  0
    4.4741    1.7311   -0.2647 P   0  0  3  0  0  0  0  0  0  0  0  0
    3.3578    0.7023   -0.4499 O   0  0  0  0  0  0  0  0  0  0  0  0
    3.9183    2.8723    0.7836 O   0  0  0  0  0  0  0  0  0  0  0  0
    3.8641    2.6817   -1.7045 C   0  0  0  0  0  0  0  0  0  0  0  0
    2.3172    2.8626   -1.7619 C   0  0  3  0  0  0  0  0  0  0  0  0
    1.7385    3.5421   -0.5158 C   0  0  0  0  0  0  0  0  0  0  0  0
    0.9646    3.0094    0.2686 O   0  0  0  0  0  0  0  0  0  0  0  0
    2.1917    4.8296   -0.3996 O   0  0  0  0  0  0  0  0  0  0  0  0
    1.7411    5.5544    0.7469 C   0  0  0  0  0  0  0  0  0  0  0  0
    1.7968    3.5524   -3.0194 C   0  0  0  0  0  0  0  0  0  0  0  0
    2.5302    4.5502   -3.6824 C   0  0  0  0  0  0  0  0  0  0  0  0
    1.9978    5.2178   -4.7851 C   0  0  0  0  0  0  0  0  0  0  0  0
    0.7182    4.8987   -5.2217 C   0  0  0  0  0  0  0  0  0  0  0  0
    0.1367    5.5393   -6.2804 O   0  0  0  0  0  0  0  0  0  0  0  0
   -0.0216    3.9173   -4.5704 C   0  0  0  0  0  0  0  0  0  0  0  0
   -1.2879    3.6291   -4.9897 O   0  0  0  0  0  0  0  0  0  0  0  0
    0.5045    3.2390   -3.4798 C   0  0  0  0  0  0  0  0  0  0  0  0
    5.9199   -1.2979   -0.0302 C   0  0  0  0  0  0  0  0  0  0  0  0
    5.7304   -1.0839   -1.4088 C   0  0  0  0  0  0  0  0  0  0  0  0
    5.2023   -2.0856   -2.2228 C   0  0  0  0  0  0  0  0  0  0  0  0
    4.9062   -3.3214   -1.6647 C   0  0  0  0  0  0  0  0  0  0  0  0
    4.3334   -4.3183   -2.4022 O   0  0  0  0  0  0  0  0  0  0  0  0
    5.1699   -3.5651   -0.3209 C   0  0  0  0  0  0  0  0  0  0  0  0
    4.8916   -4.7938    0.2158 O   0  0  0  0  0  0  0  0  0  0  0  0
    5.6730   -2.5720    0.4983 C   0  0  0  0  0  0  0  0  0  0  0  0
   10.4097   -0.3309   -0.3702 H   0  0  0  0  0  0  0  0  0  0  0  0
   10.5376    0.7784    1.0056 H   0  0  0  0  0  0  0  0  0  0  0  0
    9.7654    1.3181   -0.5079 H   0  0  0  0  0  0  0  0  0  0  0  0
    6.5926   -0.5630    1.8688 H   0  0  0  0  0  0  0  0  0  0  0  0
    5.4210    1.5003    1.9337 H   0  0  0  0  0  0  0  0  0  0  0  0
    4.2732    0.2034    1.6394 H   0  0  0  0  0  0  0  0  0  0  0  0
    3.3660    2.5082    1.5110 H   0  0  0  0  0  0  0  0  0  0  0  0
    4.2105    2.1669   -2.6088 H   0  0  0  0  0  0  0  0  0  0  0  0
    4.3731    3.6513   -1.6678 H   0  0  0  0  0  0  0  0  0  0  0  0
    1.8739    1.8568   -1.7785 H   0  0  0  0  0  0  0  0  0  0  0  0
    0.9610    6.2542    0.4374 H   0  0  0  0  0  0  0  0  0  0  0  0
    2.5866    6.1281    1.1419 H   0  0  0  0  0  0  0  0  0  0  0  0
    1.3664    4.9152    1.5521 H   0  0  0  0  0  0  0  0  0  0  0  0
    3.5161    4.8404   -3.3297 H   0  0  0  0  0  0  0  0  0  0  0  0
    2.5859    5.9885   -5.2703 H   0  0  0  0  0  0  0  0  0  0  0  0
    0.7665    6.2042   -6.6090 H   0  0  0  0  0  0  0  0  0  0  0  0
   -1.4467    4.2498   -5.7281 H   0  0  0  0  0  0  0  0  0  0  0  0
   -0.1029    2.4883   -2.9795 H   0  0  0  0  0  0  0  0  0  0  0  0
    5.9387   -0.1176   -1.8603 H   0  0  0  0  0  0  0  0  0  0  0  0
    5.0066   -1.8706   -3.2678 H   0  0  0  0  0  0  0  0  0  0  0  0
    4.0369   -3.9255   -3.2434 H   0  0  0  0  0  0  0  0  0  0  0  0
    4.4971   -5.2963   -0.5283 H   0  0  0  0  0  0  0  0  0  0  0  0
    5.8367   -2.7872    1.5555 H   0  0  0  0  0  0  0  0  0  0  0  0
  1  2  1  0  0  0  0
  1 32  1  0  0  0  0
  1 33  1  0  0  0  0
  1 34  1  0  0  0  0
  2  3  1  0  0  0  0
  3  4  2  0  0  0  0
  3  5  1  0  0  0  0
  5  6  1  0  0  0  0
  5 24  1  0  0  0  0
  5 35  1  0  0  0  0
  6  7  1  0  0  0  0
  6 36  1  0  0  0  0
  6 37  1  0  0  0  0
  7  8  2  0  0  0  0
  7  9  1  0  0  0  0
  7 10  1  0  0  0  0
  9 38  1  0  0  0  0
 10 11  1  0  0  0  0
 10 39  1  0  0  0  0
 10 40  1  0  0  0  0
 11 12  1  0  0  0  0
 11 16  1  0  0  0  0
 11 41  1  0  0  0  0
 12 13  2  0  0  0  0
 12 14  1  0  0  0  0
 14 15  1  0  0  0  0
 15 42  1  0  0  0  0
 15 43  1  0  0  0  0
 15 44  1  0  0  0  0
 16 17  1  0  0  0  0
 16 23  2  0  0  0  0
 17 18  2  0  0  0  0
 17 45  1  0  0  0  0
 18 19  1  0  0  0  0
 18 46  1  0  0  0  0
 19 20  1  0  0  0  0
 19 21  2  0  0  0  0
 20 47  1  0  0  0  0
 21 22  1  0  0  0  0
 21 23  1  0  0  0  0
 22 48  1  0  0  0  0
 23 49  1  0  0  0  0
 24 25  1  0  0  0  0
 24 31  2  0  0  0  0
 25 26  2  0  0  0  0
 25 50  1  0  0  0  0
 26 27  1  0  0  0  0
 26 51  1  0  0  0  0
 27 28  1  0  0  0  0
 27 29  2  0  0  0  0
 28 52  1  0  0  0  0
 29 30  1  0  0  0  0
 29 31  1  0  0  0  0
 30 53  1  0  0  0  0
 31 54  1  0  0  0  0
M  END
>  <Line_Number>
332


> <IC50>
56775

$$$$
