172440200.0
 OpenBabel09092522113D

 28 28  0  0  1  0  0  0  0  0999 V2000
    1.3293   -0.2971   -0.8366 O   0  0  0  0  0  0  0  0  0  0  0  0
    2.2395    0.0622   -0.1118 C   0  0  0  0  0  0  0  0  0  0  0  0
    2.6307    1.3600   -0.0626 O   0  0  0  0  0  0  0  0  0  0  0  0
    3.0367   -0.8578    0.8069 C   0  0  3  0  0  0  0  0  0  0  0  0
    2.6087   -2.3206    0.6364 C   0  0  0  0  0  0  0  0  0  0  0  0
    1.1549   -2.9349    1.4378 P   0  0  0  0  0  0  0  0  0  0  0  0
    1.0264   -4.4274    1.4840 O   0  0  0  0  0  0  0  0  0  0  0  0
    1.0656   -2.2768    2.8936 O   0  0  0  0  0  0  0  0  0  0  0  0
   -0.1735   -2.3109    0.8127 O   0  0  0  0  0  0  0  0  0  0  0  0
    4.5611   -0.7599    0.5902 C   0  0  0  0  0  0  0  0  0  0  0  0
    5.0836   -0.5159   -0.7018 C   0  0  0  0  0  0  0  0  0  0  0  0
    6.4601   -0.5318   -0.9223 C   0  0  0  0  0  0  0  0  0  0  0  0
    7.0008   -0.3005   -2.1557 O   0  0  0  0  0  0  0  0  0  0  0  0
    7.3384   -0.8023    0.1212 C   0  0  0  0  0  0  0  0  0  0  0  0
    8.6813   -0.8552   -0.1094 O   0  0  0  0  0  0  0  0  0  0  0  0
    6.8604   -1.0367    1.3994 C   0  0  0  0  0  0  0  0  0  0  0  0
    5.4816   -1.0113    1.6365 C   0  0  0  0  0  0  0  0  0  0  0  0
    4.9255   -1.3579    3.4217 Br  0  0  0  0  0  0  0  0  0  0  0  0
    3.3955    1.5449    0.5188 H   0  0  0  0  0  0  0  0  0  0  0  0
    2.7821   -0.5088    1.8136 H   0  0  0  0  0  0  0  0  0  0  0  0
    3.4011   -2.9571    1.0510 H   0  0  0  0  0  0  0  0  0  0  0  0
    2.5567   -2.5806   -0.4275 H   0  0  0  0  0  0  0  0  0  0  0  0
    0.8221   -1.3334    2.8966 H   0  0  0  0  0  0  0  0  0  0  0  0
   -0.9564   -2.8450    1.0598 H   0  0  0  0  0  0  0  0  0  0  0  0
    4.4192   -0.3286   -1.5432 H   0  0  0  0  0  0  0  0  0  0  0  0
    6.2831   -0.1293   -2.7907 H   0  0  0  0  0  0  0  0  0  0  0  0
    8.7814   -0.7162   -1.0736 H   0  0  0  0  0  0  0  0  0  0  0  0
    7.5701   -1.2523    2.1958 H   0  0  0  0  0  0  0  0  0  0  0  0
  1  2  2  0  0  0  0
  2  3  1  0  0  0  0
  2  4  1  0  0  0  0
  3 19  1  0  0  0  0
  4  5  1  0  0  0  0
  4 10  1  0  0  0  0
  4 20  1  0  0  0  0
  5  6  1  0  0  0  0
  5 21  1  0  0  0  0
  5 22  1  0  0  0  0
  6  7  2  0  0  0  0
  6  8  1  0  0  0  0
  6  9  1  0  0  0  0
  8 23  1  0  0  0  0
  9 24  1  0  0  0  0
 10 11  1  0  0  0  0
 10 17  2  0  0  0  0
 11 12  2  0  0  0  0
 11 25  1  0  0  0  0
 12 13  1  0  0  0  0
 12 14  1  0  0  0  0
 13 26  1  0  0  0  0
 14 15  1  0  0  0  0
 14 16  2  0  0  0  0
 15 27  1  0  0  0  0
 16 17  1  0  0  0  0
 16 28  1  0  0  0  0
 17 18  1  0  0  0  0
M  END
>  <Line_Number>
333


> <IC50>
42550

$$$$
