172446415.0
 OpenBabel09092522113D

 36 36  0  0  1  0  0  0  0  0999 V2000
    7.6055    0.8987   -1.6315 O   0  0  0  0  0  0  0  0  0  0  0  0
    7.1598    0.9937   -0.4899 C   0  0  0  0  0  0  0  0  0  0  0  0
    7.6401    1.8686    0.4170 O   0  0  0  0  0  0  0  0  0  0  0  0
    6.0444    0.1273    0.0196 C   0  0  0  0  0  0  0  0  0  0  0  0
    5.0322   -0.1427   -1.0808 C   0  0  0  0  0  0  0  0  0  0  0  0
    5.0497   -1.5981   -2.1147 P   0  0  3  0  0  0  0  0  0  0  0  0
    4.4575   -2.7935   -1.4366 O   0  0  0  0  0  0  0  0  0  0  0  0
    3.8784   -1.1041   -3.1416 O   0  0  0  0  0  0  0  0  0  0  0  0
    6.2709   -1.9781   -3.3652 C   0  0  0  0  0  0  0  0  0  0  0  0
    7.4167   -2.9758   -3.1174 C   0  0  3  0  0  0  0  0  0  0  0  0
    7.0106   -4.0728   -2.1442 C   0  0  0  0  0  0  0  0  0  0  0  0
    7.0949   -3.9170   -0.9347 O   0  0  0  0  0  0  0  0  0  0  0  0
    6.5667   -5.2304   -2.6835 O   0  0  0  0  0  0  0  0  0  0  0  0
    8.1073   -3.5522   -4.3743 C   0  0  0  0  0  0  0  0  0  0  0  0
    7.4575   -3.7403   -5.6130 C   0  0  0  0  0  0  0  0  0  0  0  0
    8.1173   -4.3286   -6.7061 C   0  0  0  0  0  0  0  0  0  0  0  0
    9.4360   -4.7360   -6.5712 C   0  0  0  0  0  0  0  0  0  0  0  0
   10.1333   -5.3082   -7.5980 O   0  0  0  0  0  0  0  0  0  0  0  0
   10.0887   -4.5716   -5.3561 C   0  0  0  0  0  0  0  0  0  0  0  0
   11.3864   -4.9778   -5.2248 O   0  0  0  0  0  0  0  0  0  0  0  0
    9.4398   -3.9998   -4.2636 C   0  0  0  0  0  0  0  0  0  0  0  0
    7.2184    1.8437    1.2967 H   0  0  0  0  0  0  0  0  0  0  0  0
    5.5286    0.6912    0.8115 H   0  0  0  0  0  0  0  0  0  0  0  0
    6.4580   -0.7827    0.4555 H   0  0  0  0  0  0  0  0  0  0  0  0
    4.9048    0.7539   -1.6992 H   0  0  0  0  0  0  0  0  0  0  0  0
    4.0722   -0.2509   -0.5511 H   0  0  0  0  0  0  0  0  0  0  0  0
    2.9875   -1.2318   -2.7637 H   0  0  0  0  0  0  0  0  0  0  0  0
    6.6661   -1.0618   -3.8185 H   0  0  0  0  0  0  0  0  0  0  0  0
    5.6395   -2.4314   -4.1382 H   0  0  0  0  0  0  0  0  0  0  0  0
    8.1988   -2.4118   -2.5868 H   0  0  0  0  0  0  0  0  0  0  0  0
    6.6061   -5.2783   -3.6587 H   0  0  0  0  0  0  0  0  0  0  0  0
    6.4210   -3.4481   -5.7642 H   0  0  0  0  0  0  0  0  0  0  0  0
    7.5862   -4.4572   -7.6451 H   0  0  0  0  0  0  0  0  0  0  0  0
    9.5569   -5.3508   -8.3805 H   0  0  0  0  0  0  0  0  0  0  0  0
   11.6289   -5.3248   -6.1076 H   0  0  0  0  0  0  0  0  0  0  0  0
    9.9837   -3.9143   -3.3248 H   0  0  0  0  0  0  0  0  0  0  0  0
  1  2  2  0  0  0  0
  2  3  1  0  0  0  0
  2  4  1  0  0  0  0
  3 22  1  0  0  0  0
  4  5  1  0  0  0  0
  4 23  1  0  0  0  0
  4 24  1  0  0  0  0
  5  6  1  0  0  0  0
  5 25  1  0  0  0  0
  5 26  1  0  0  0  0
  6  7  2  0  0  0  0
  6  8  1  0  0  0  0
  6  9  1  0  0  0  0
  8 27  1  0  0  0  0
  9 10  1  0  0  0  0
  9 28  1  0  0  0  0
  9 29  1  0  0  0  0
 10 11  1  0  0  0  0
 10 14  1  0  0  0  0
 10 30  1  0  0  0  0
 11 12  2  0  0  0  0
 11 13  1  0  0  0  0
 13 31  1  0  0  0  0
 14 15  1  0  0  0  0
 14 21  2  0  0  0  0
 15 16  2  0  0  0  0
 15 32  1  0  0  0  0
 16 17  1  0  0  0  0
 16 33  1  0  0  0  0
 17 18  1  0  0  0  0
 17 19  2  0  0  0  0
 18 34  1  0  0  0  0
 19 20  1  0  0  0  0
 19 21  1  0  0  0  0
 20 35  1  0  0  0  0
 21 36  1  0  0  0  0
M  END
>  <Line_Number>
334


> <IC50>
7705

$$$$
