172441090.0
 OpenBabel09092522113D

 26 26  0  0  1  0  0  0  0  0999 V2000
    1.2099   -0.6282   -0.2167 O   0  0  0  0  0  0  0  0  0  0  0  0
    2.1469    0.1522   -0.1847 C   0  0  0  0  0  0  0  0  0  0  0  0
    2.4954    0.8889   -1.2632 O   0  0  0  0  0  0  0  0  0  0  0  0
    2.9821    0.4487    1.0632 C   0  0  3  0  0  0  0  0  0  0  0  0
    2.5117   -0.3301    2.2952 C   0  0  0  0  0  0  0  0  0  0  0  0
    2.5468   -2.1784    2.2072 P   0  3  3  0  0  0  0  0  0  0  0  0
    3.9732   -2.4372    2.3190 O   0  0  0  0  0  0  0  0  0  0  0  0
    2.1947   -2.4878    3.7508 O   0  0  0  0  0  0  0  0  0  0  0  0
    4.4892    0.4178    0.8518 C   0  0  0  0  0  0  0  0  0  0  0  0
    5.1101   -0.4713   -0.0525 C   0  0  0  0  0  0  0  0  0  0  0  0
    6.5025   -0.4900   -0.1943 C   0  0  0  0  0  0  0  0  0  0  0  0
    7.2777    0.3721    0.5698 C   0  0  0  0  0  0  0  0  0  0  0  0
    8.6409    0.3967    0.4757 O   0  0  0  0  0  0  0  0  0  0  0  0
    6.6751    1.2436    1.4693 C   0  0  0  0  0  0  0  0  0  0  0  0
    7.4403    2.0792    2.2307 O   0  0  0  0  0  0  0  0  0  0  0  0
    5.2954    1.2725    1.6171 C   0  0  0  0  0  0  0  0  0  0  0  0
    3.2568    1.4845   -1.1112 H   0  0  0  0  0  0  0  0  0  0  0  0
    2.7312    1.4972    1.2705 H   0  0  0  0  0  0  0  0  0  0  0  0
    1.4609   -0.0697    2.4820 H   0  0  0  0  0  0  0  0  0  0  0  0
    3.0716   -0.0009    3.1771 H   0  0  0  0  0  0  0  0  0  0  0  0
    2.3646   -3.4403    3.8944 H   0  0  0  0  0  0  0  0  0  0  0  0
    4.5234   -1.1786   -0.6324 H   0  0  0  0  0  0  0  0  0  0  0  0
    6.9536   -1.1938   -0.8857 H   0  0  0  0  0  0  0  0  0  0  0  0
    8.9100   -0.2817   -0.1674 H   0  0  0  0  0  0  0  0  0  0  0  0
    8.3609    1.8469    1.9956 H   0  0  0  0  0  0  0  0  0  0  0  0
    4.8624    1.9534    2.3461 H   0  0  0  0  0  0  0  0  0  0  0  0
  1  2  2  0  0  0  0
  2  3  1  0  0  0  0
  2  4  1  0  0  0  0
  3 17  1  0  0  0  0
  4  5  1  0  0  0  0
  4  9  1  0  0  0  0
  4 18  1  0  0  0  0
  5  6  1  0  0  0  0
  5 19  1  0  0  0  0
  5 20  1  0  0  0  0
  6  7  2  0  0  0  0
  6  8  1  0  0  0  0
  8 21  1  0  0  0  0
  9 10  1  0  0  0  0
  9 16  2  0  0  0  0
 10 11  2  0  0  0  0
 10 22  1  0  0  0  0
 11 12  1  0  0  0  0
 11 23  1  0  0  0  0
 12 13  1  0  0  0  0
 12 14  2  0  0  0  0
 13 24  1  0  0  0  0
 14 15  1  0  0  0  0
 14 16  1  0  0  0  0
 15 25  1  0  0  0  0
 16 26  1  0  0  0  0
M  CHG  1   6   1
M  END
>  <Line_Number>
336


> <IC50>
34650

$$$$
