172461642.0
 OpenBabel09092522123D

 42 42  0  0  1  0  0  0  0  0999 V2000
    4.9994    1.9822   -6.4025 C   0  0  0  0  0  0  0  0  0  0  0  0
    4.7138    2.7384   -5.2339 O   0  0  0  0  0  0  0  0  0  0  0  0
    5.4194    2.3354   -4.1337 C   0  0  0  0  0  0  0  0  0  0  0  0
    6.2580    1.4538   -4.1177 O   0  0  0  0  0  0  0  0  0  0  0  0
    4.9879    3.1155   -2.9324 C   0  0  0  0  0  0  0  0  0  0  0  0
    5.3634    2.3512   -1.6832 C   0  0  0  0  0  0  0  0  0  0  0  0
    6.8730    2.6037   -0.7856 P   0  0  3  0  0  0  0  0  0  0  0  0
    6.7255    3.8424    0.0548 O   0  0  0  0  0  0  0  0  0  0  0  0
    6.7449    1.2666    0.1251 O   0  0  0  0  0  0  0  0  0  0  0  0
    8.5827    2.3504   -1.3069 C   0  0  0  0  0  0  0  0  0  0  0  0
    9.4937    2.7205   -0.0791 C   0  0  3  0  0  0  0  0  0  0  0  0
    9.1592    1.8968    1.1733 C   0  0  0  0  0  0  0  0  0  0  0  0
    8.5525    2.3452    2.1394 O   0  0  0  0  0  0  0  0  0  0  0  0
    9.6044    0.6081    1.0814 O   0  0  0  0  0  0  0  0  0  0  0  0
    9.2546   -0.2215    2.1943 C   0  0  0  0  0  0  0  0  0  0  0  0
   11.0032    2.8518   -0.2726 C   0  0  0  0  0  0  0  0  0  0  0  0
   11.8251    1.7876   -0.6749 C   0  0  0  0  0  0  0  0  0  0  0  0
   13.2230    1.9302   -0.7207 C   0  0  0  0  0  0  0  0  0  0  0  0
   13.8011    3.1520   -0.3712 C   0  0  0  0  0  0  0  0  0  0  0  0
   15.1548    3.3506   -0.3871 O   0  0  0  0  0  0  0  0  0  0  0  0
   13.0027    4.2042    0.0383 C   0  0  0  0  0  0  0  0  0  0  0  0
   13.5687    5.3898    0.4148 O   0  0  0  0  0  0  0  0  0  0  0  0
   11.6203    4.0651    0.0985 C   0  0  0  0  0  0  0  0  0  0  0  0
    4.5169    2.4765   -7.2550 H   0  0  0  0  0  0  0  0  0  0  0  0
    4.5820    0.9754   -6.3064 H   0  0  0  0  0  0  0  0  0  0  0  0
    6.0746    1.9397   -6.5942 H   0  0  0  0  0  0  0  0  0  0  0  0
    3.8878    3.1828   -2.9571 H   0  0  0  0  0  0  0  0  0  0  0  0
    5.4018    4.1247   -2.9575 H   0  0  0  0  0  0  0  0  0  0  0  0
    5.1696    1.2826   -1.8139 H   0  0  0  0  0  0  0  0  0  0  0  0
    4.6190    2.6665   -0.9338 H   0  0  0  0  0  0  0  0  0  0  0  0
    5.8753    1.1120    0.5341 H   0  0  0  0  0  0  0  0  0  0  0  0
    8.8377    2.9952   -2.1567 H   0  0  0  0  0  0  0  0  0  0  0  0
    8.7535    1.3138   -1.6197 H   0  0  0  0  0  0  0  0  0  0  0  0
    9.1701    3.7350    0.1897 H   0  0  0  0  0  0  0  0  0  0  0  0
   10.0110   -1.0051    2.2939 H   0  0  0  0  0  0  0  0  0  0  0  0
    8.2884   -0.6934    1.9942 H   0  0  0  0  0  0  0  0  0  0  0  0
    9.2156    0.3243    3.1434 H   0  0  0  0  0  0  0  0  0  0  0  0
   11.3949    0.8165   -0.9135 H   0  0  0  0  0  0  0  0  0  0  0  0
   13.8346    1.0852   -1.0006 H   0  0  0  0  0  0  0  0  0  0  0  0
   15.5714    2.5258   -0.6990 H   0  0  0  0  0  0  0  0  0  0  0  0
   14.5296    5.2406    0.3126 H   0  0  0  0  0  0  0  0  0  0  0  0
   11.0322    4.9018    0.4654 H   0  0  0  0  0  0  0  0  0  0  0  0
  1  2  1  0  0  0  0
  1 24  1  0  0  0  0
  1 25  1  0  0  0  0
  1 26  1  0  0  0  0
  2  3  1  0  0  0  0
  3  4  2  0  0  0  0
  3  5  1  0  0  0  0
  5  6  1  0  0  0  0
  5 27  1  0  0  0  0
  5 28  1  0  0  0  0
  6  7  1  0  0  0  0
  6 29  1  0  0  0  0
  6 30  1  0  0  0  0
  7  8  2  0  0  0  0
  7  9  1  0  0  0  0
  7 10  1  0  0  0  0
  9 31  1  0  0  0  0
 10 11  1  0  0  0  0
 10 32  1  0  0  0  0
 10 33  1  0  0  0  0
 11 12  1  0  0  0  0
 11 16  1  0  0  0  0
 11 34  1  0  0  0  0
 12 13  2  0  0  0  0
 12 14  1  0  0  0  0
 14 15  1  0  0  0  0
 15 35  1  0  0  0  0
 15 36  1  0  0  0  0
 15 37  1  0  0  0  0
 16 17  1  0  0  0  0
 16 23  2  0  0  0  0
 17 18  2  0  0  0  0
 17 38  1  0  0  0  0
 18 19  1  0  0  0  0
 18 39  1  0  0  0  0
 19 20  1  0  0  0  0
 19 21  2  0  0  0  0
 20 40  1  0  0  0  0
 21 22  1  0  0  0  0
 21 23  1  0  0  0  0
 22 41  1  0  0  0  0
 23 42  1  0  0  0  0
M  END
>  <Line_Number>
338

$$$$

> <IC50>
320000

