471.0
 OpenBabel09092522103D

 34 36  0  0  1  0  0  0  0  0999 V2000
    1.0746   -0.1430    0.1046 O   0  0  0  0  0  0  0  0  0  0  0  0
    2.3028   -0.0786    0.0337 C   0  0  0  0  0  0  0  0  0  0  0  0
    3.0836   -1.2935   -0.2301 C   0  0  0  0  0  0  0  0  0  0  0  0
    2.5084   -2.5630   -0.0979 C   0  0  0  0  0  0  0  0  0  0  0  0
    1.1976   -2.7571    0.2437 O   0  0  0  0  0  0  0  0  0  0  0  0
    3.2760   -3.7047   -0.2992 C   0  0  0  0  0  0  0  0  0  0  0  0
    4.6191   -3.5637   -0.6383 C   0  0  0  0  0  0  0  0  0  0  0  0
    5.4077   -4.6580   -0.8401 O   0  0  0  0  0  0  0  0  0  0  0  0
    5.2003   -2.3015   -0.7831 C   0  0  0  0  0  0  0  0  0  0  0  0
    4.4281   -1.1549   -0.5875 C   0  0  0  0  0  0  0  0  0  0  0  0
    5.0624    0.0579   -0.7378 O   0  0  0  0  0  0  0  0  0  0  0  0
    4.1642    1.1767   -0.9009 C   0  0  3  0  0  0  0  0  0  0  0  0
    4.9583    2.4763   -0.9173 C   0  0  0  0  0  0  0  0  0  0  0  0
    5.7565    2.8676    0.1748 C   0  0  0  0  0  0  0  0  0  0  0  0
    6.3798    4.1222    0.1991 C   0  0  0  0  0  0  0  0  0  0  0  0
    6.2162    4.9841   -0.8776 C   0  0  0  0  0  0  0  0  0  0  0  0
    6.7864    6.2268   -0.9071 O   0  0  0  0  0  0  0  0  0  0  0  0
    5.4454    4.6004   -1.9697 C   0  0  0  0  0  0  0  0  0  0  0  0
    5.2785    5.4559   -3.0215 O   0  0  0  0  0  0  0  0  0  0  0  0
    4.8200    3.3609   -2.0016 C   0  0  0  0  0  0  0  0  0  0  0  0
    3.1067    1.1934    0.2138 C   0  0  3  0  0  0  0  0  0  0  0  0
    2.2685    2.3426    0.1887 O   0  0  0  0  0  0  0  0  0  0  0  0
    0.7535   -1.8800    0.2907 H   0  0  0  0  0  0  0  0  0  0  0  0
    2.8173   -4.6820   -0.1829 H   0  0  0  0  0  0  0  0  0  0  0  0
    4.8743   -5.4599   -0.7093 H   0  0  0  0  0  0  0  0  0  0  0  0
    6.2503   -2.2207   -1.0513 H   0  0  0  0  0  0  0  0  0  0  0  0
    3.6781    1.0675   -1.8820 H   0  0  0  0  0  0  0  0  0  0  0  0
    5.8747    2.2066    1.0314 H   0  0  0  0  0  0  0  0  0  0  0  0
    6.9675    4.4077    1.0656 H   0  0  0  0  0  0  0  0  0  0  0  0
    7.2800    6.3526   -0.0785 H   0  0  0  0  0  0  0  0  0  0  0  0
    5.7878    6.2525   -2.7706 H   0  0  0  0  0  0  0  0  0  0  0  0
    4.2061    3.1084   -2.8617 H   0  0  0  0  0  0  0  0  0  0  0  0
    3.5671    1.1404    1.2073 H   0  0  0  0  0  0  0  0  0  0  0  0
    1.7292    2.3129   -0.6206 H   0  0  0  0  0  0  0  0  0  0  0  0
  1  2  2  0  0  0  0
  2  3  1  0  0  0  0
  2 21  1  0  0  0  0
  3  4  1  0  0  0  0
  3 10  2  0  0  0  0
  4  5  1  0  0  0  0
  4  6  2  0  0  0  0
  5 23  1  0  0  0  0
  6  7  1  0  0  0  0
  6 24  1  0  0  0  0
  7  8  1  0  0  0  0
  7  9  2  0  0  0  0
  8 25  1  0  0  0  0
  9 10  1  0  0  0  0
  9 26  1  0  0  0  0
 10 11  1  0  0  0  0
 11 12  1  0  0  0  0
 12 13  1  0  0  0  0
 12 21  1  0  0  0  0
 12 27  1  0  0  0  0
 13 14  1  0  0  0  0
 13 20  2  0  0  0  0
 14 15  2  0  0  0  0
 14 28  1  0  0  0  0
 15 16  1  0  0  0  0
 15 29  1  0  0  0  0
 16 17  1  0  0  0  0
 16 18  2  0  0  0  0
 17 30  1  0  0  0  0
 18 19  1  0  0  0  0
 18 20  1  0  0  0  0
 19 31  1  0  0  0  0
 20 32  1  0  0  0  0
 21 22  1  0  0  0  0
 21 33  1  0  0  0  0
 22 34  1  0  0  0  0
M  END
>  <Line_Number>
33


> <IC50>
43700

$$$$
