72197321.0
 OpenBabel09092522103D

 31 33  0  0  0  0  0  0  0  0999 V2000
    2.2861   -0.3185    0.0596 O   0  0  0  0  0  0  0  0  0  0  0  0
    0.9316   -0.1758    0.0405 C   0  0  0  0  0  0  0  0  0  0  0  0
    0.3114    0.9326    0.5977 C   0  0  0  0  0  0  0  0  0  0  0  0
   -1.0841    1.0319    0.5577 C   0  0  0  0  0  0  0  0  0  0  0  0
   -1.8770    0.0388   -0.0494 C   0  0  0  0  0  0  0  0  0  0  0  0
   -3.3577    0.1574   -0.0833 C   0  0  0  0  0  0  0  0  0  0  0  0
   -3.9557    1.3601   -0.1398 C   0  0  0  0  0  0  0  0  0  0  0  0
   -5.3103    1.5914   -0.1524 O   0  0  0  0  0  0  0  0  0  0  0  0
   -6.1587    0.5123   -0.1102 C   0  0  0  0  0  0  0  0  0  0  0  0
   -5.6911   -0.8073   -0.0813 C   0  0  0  0  0  0  0  0  0  0  0  0
   -6.6183   -1.8650   -0.0691 C   0  0  0  0  0  0  0  0  0  0  0  0
   -7.9939   -1.6087   -0.0765 C   0  0  0  0  0  0  0  0  0  0  0  0
   -8.4389   -0.2922   -0.0903 C   0  0  0  0  0  0  0  0  0  0  0  0
   -9.7722    0.0189   -0.0909 O   0  0  0  0  0  0  0  0  0  0  0  0
   -7.5294    0.7635   -0.1063 C   0  0  0  0  0  0  0  0  0  0  0  0
   -8.0067    2.0477   -0.1167 O   0  0  0  0  0  0  0  0  0  0  0  0
   -4.2076   -1.0892   -0.0747 C   0  0  0  0  0  0  0  0  0  0  0  0
   -1.2168   -1.0737   -0.5951 C   0  0  0  0  0  0  0  0  0  0  0  0
    0.1789   -1.1790   -0.5530 C   0  0  0  0  0  0  0  0  0  0  0  0
    2.6724    0.4494    0.5123 H   0  0  0  0  0  0  0  0  0  0  0  0
    0.8855    1.7248    1.0678 H   0  0  0  0  0  0  0  0  0  0  0  0
   -1.5423    1.9013    1.0238 H   0  0  0  0  0  0  0  0  0  0  0  0
   -3.4452    2.3125   -0.1854 H   0  0  0  0  0  0  0  0  0  0  0  0
   -6.2690   -2.8956   -0.0575 H   0  0  0  0  0  0  0  0  0  0  0  0
   -8.6909   -2.4408   -0.0707 H   0  0  0  0  0  0  0  0  0  0  0  0
  -10.2788   -0.8112   -0.0905 H   0  0  0  0  0  0  0  0  0  0  0  0
   -8.9784    1.9503   -0.0992 H   0  0  0  0  0  0  0  0  0  0  0  0
   -3.9877   -1.6973   -0.9599 H   0  0  0  0  0  0  0  0  0  0  0  0
   -3.9728   -1.6780    0.8212 H   0  0  0  0  0  0  0  0  0  0  0  0
   -1.7672   -1.8739   -1.0810 H   0  0  0  0  0  0  0  0  0  0  0  0
    0.6746   -2.0424   -0.9877 H   0  0  0  0  0  0  0  0  0  0  0  0
  1  2  1  0  0  0  0
  1 20  1  0  0  0  0
  2  3  1  0  0  0  0
  2 19  2  0  0  0  0
  3  4  2  0  0  0  0
  3 21  1  0  0  0  0
  4  5  1  0  0  0  0
  4 22  1  0  0  0  0
  5  6  1  0  0  0  0
  5 18  2  0  0  0  0
  6  7  2  0  0  0  0
  6 17  1  0  0  0  0
  7  8  1  0  0  0  0
  7 23  1  0  0  0  0
  8  9  1  0  0  0  0
  9 10  1  0  0  0  0
  9 15  2  0  0  0  0
 10 11  2  0  0  0  0
 10 17  1  0  0  0  0
 11 12  1  0  0  0  0
 11 24  1  0  0  0  0
 12 13  2  0  0  0  0
 12 25  1  0  0  0  0
 13 14  1  0  0  0  0
 13 15  1  0  0  0  0
 14 26  1  0  0  0  0
 15 16  1  0  0  0  0
 16 27  1  0  0  0  0
 17 28  1  0  0  0  0
 17 29  1  0  0  0  0
 18 19  1  0  0  0  0
 18 30  1  0  0  0  0
 19 31  1  0  0  0  0
M  END
>  <Line_Number>
34


> <IC50>
745

$$$$
