23652247.0
 OpenBabel09092522103D

 35 37  0  0  1  0  0  0  0  0999 V2000
    1.4944    0.7329    0.7083 C   0  0  0  0  0  0  0  0  0  0  0  0
    2.5405    0.4697   -0.2146 O   0  0  0  0  0  0  0  0  0  0  0  0
    3.0852    1.5419   -0.8620 C   0  0  0  0  0  0  0  0  0  0  0  0
    2.7944    2.8876   -0.6351 C   0  0  0  0  0  0  0  0  0  0  0  0
    3.3965    3.8884   -1.4163 C   0  0  0  0  0  0  0  0  0  0  0  0
    4.2945    3.5507   -2.4333 C   0  0  0  0  0  0  0  0  0  0  0  0
    4.7761    4.5150   -3.5064 C   0  0  3  0  0  0  0  0  0  0  0  0
    4.8874    6.0388   -3.2221 C   0  0  0  0  0  0  0  0  0  0  0  0
    4.3556    6.9238   -4.2449 O   0  0  0  0  0  0  0  0  0  0  0  0
    4.6086    6.4768   -5.5165 C   0  0  0  0  0  0  0  0  0  0  0  0
    4.9983    7.3645   -6.5085 C   0  0  0  0  0  0  0  0  0  0  0  0
    5.3530    6.8520   -7.7563 C   0  0  0  0  0  0  0  0  0  0  0  0
    5.7717    7.6640   -8.7687 O   0  0  0  0  0  0  0  0  0  0  0  0
    5.3167    5.4853   -8.0184 C   0  0  0  0  0  0  0  0  0  0  0  0
    4.8341    4.6158   -7.0477 C   0  0  0  0  0  0  0  0  0  0  0  0
    4.4559    5.1266   -5.8088 C   0  0  0  0  0  0  0  0  0  0  0  0
    3.8891    4.2747   -4.7274 C   0  0  0  0  0  0  0  0  0  0  0  0
    4.6214    2.1921   -2.6090 C   0  0  0  0  0  0  0  0  0  0  0  0
    4.0129    1.2017   -1.8427 C   0  0  0  0  0  0  0  0  0  0  0  0
    1.2650   -0.2058    1.2212 H   0  0  0  0  0  0  0  0  0  0  0  0
    0.5900    1.0638    0.1869 H   0  0  0  0  0  0  0  0  0  0  0  0
    1.7998    1.4546    1.4714 H   0  0  0  0  0  0  0  0  0  0  0  0
    2.0836    3.1971    0.1245 H   0  0  0  0  0  0  0  0  0  0  0  0
    3.1037    4.9205   -1.2455 H   0  0  0  0  0  0  0  0  0  0  0  0
    5.8022    4.1983   -3.7502 H   0  0  0  0  0  0  0  0  0  0  0  0
    5.9476    6.3023   -3.1032 H   0  0  0  0  0  0  0  0  0  0  0  0
    4.4088    6.3268   -2.2826 H   0  0  0  0  0  0  0  0  0  0  0  0
    5.0441    8.4251   -6.2933 H   0  0  0  0  0  0  0  0  0  0  0  0
    5.6400    8.5848   -8.4968 H   0  0  0  0  0  0  0  0  0  0  0  0
    5.6453    5.1004   -8.9780 H   0  0  0  0  0  0  0  0  0  0  0  0
    4.7810    3.5466   -7.2489 H   0  0  0  0  0  0  0  0  0  0  0  0
    3.8615    3.2214   -5.0299 H   0  0  0  0  0  0  0  0  0  0  0  0
    2.8496    4.5716   -4.5251 H   0  0  0  0  0  0  0  0  0  0  0  0
    5.3030    1.8878   -3.4020 H   0  0  0  0  0  0  0  0  0  0  0  0
    4.2340    0.1565   -2.0435 H   0  0  0  0  0  0  0  0  0  0  0  0
  1  2  1  0  0  0  0
  1 20  1  0  0  0  0
  1 21  1  0  0  0  0
  1 22  1  0  0  0  0
  2  3  1  0  0  0  0
  3  4  1  0  0  0  0
  3 19  2  0  0  0  0
  4  5  2  0  0  0  0
  4 23  1  0  0  0  0
  5  6  1  0  0  0  0
  5 24  1  0  0  0  0
  6  7  1  0  0  0  0
  6 18  2  0  0  0  0
  7  8  1  0  0  0  0
  7 17  1  0  0  0  0
  7 25  1  0  0  0  0
  8  9  1  0  0  0  0
  8 26  1  0  0  0  0
  8 27  1  0  0  0  0
  9 10  1  0  0  0  0
 10 11  1  0  0  0  0
 10 16  2  0  0  0  0
 11 12  2  0  0  0  0
 11 28  1  0  0  0  0
 12 13  1  0  0  0  0
 12 14  1  0  0  0  0
 13 29  1  0  0  0  0
 14 15  2  0  0  0  0
 14 30  1  0  0  0  0
 15 16  1  0  0  0  0
 15 31  1  0  0  0  0
 16 17  1  0  0  0  0
 17 32  1  0  0  0  0
 17 33  1  0  0  0  0
 18 19  1  0  0  0  0
 18 34  1  0  0  0  0
 19 35  1  0  0  0  0
M  END
>  <Line_Number>
35


> <IC50>
358000

$$$$
