932.0
 OpenBabel09092522103D

 32 34  0  0  1  0  0  0  0  0999 V2000
    2.3817    1.6252    0.3898 O   0  0  0  0  0  0  0  0  0  0  0  0
    1.8533    0.5208    0.3030 C   0  0  0  0  0  0  0  0  0  0  0  0
    2.6894   -0.7275    0.3982 C   0  0  0  0  0  0  0  0  0  0  0  0
    2.0662   -1.8171   -0.4592 C   0  0  3  0  0  0  0  0  0  0  0  0
    2.1110   -1.6481   -1.9781 C   0  0  0  0  0  0  0  0  0  0  0  0
    2.7366   -0.5582   -2.6090 C   0  0  0  0  0  0  0  0  0  0  0  0
    2.7940   -0.4653   -4.0025 C   0  0  0  0  0  0  0  0  0  0  0  0
    2.2336   -1.4700   -4.7802 C   0  0  0  0  0  0  0  0  0  0  0  0
    2.2879   -1.4242   -6.1412 O   0  0  0  0  0  0  0  0  0  0  0  0
    1.6041   -2.5542   -4.1867 C   0  0  0  0  0  0  0  0  0  0  0  0
    1.5428   -2.6442   -2.7932 C   0  0  0  0  0  0  0  0  0  0  0  0
    0.7332   -2.1016    0.0068 O   0  0  0  0  0  0  0  0  0  0  0  0
   -0.0807   -0.9985    0.0840 C   0  0  0  0  0  0  0  0  0  0  0  0
   -1.4514   -1.2665    0.0744 C   0  0  0  0  0  0  0  0  0  0  0  0
   -2.3506   -0.2073    0.0778 C   0  0  0  0  0  0  0  0  0  0  0  0
   -3.6976   -0.4171    0.0530 O   0  0  0  0  0  0  0  0  0  0  0  0
   -1.9040    1.1090    0.0930 C   0  0  0  0  0  0  0  0  0  0  0  0
   -0.5335    1.3734    0.1401 C   0  0  0  0  0  0  0  0  0  0  0  0
   -0.1162    2.6732    0.1564 O   0  0  0  0  0  0  0  0  0  0  0  0
    0.3886    0.3189    0.1638 C   0  0  0  0  0  0  0  0  0  0  0  0
    2.7120   -1.0247    1.4528 H   0  0  0  0  0  0  0  0  0  0  0  0
    3.7143   -0.5108    0.0797 H   0  0  0  0  0  0  0  0  0  0  0  0
    2.6438   -2.7308   -0.2577 H   0  0  0  0  0  0  0  0  0  0  0  0
    3.1978    0.2457   -2.0396 H   0  0  0  0  0  0  0  0  0  0  0  0
    3.2833    0.3924   -4.4538 H   0  0  0  0  0  0  0  0  0  0  0  0
    2.7823   -0.6297   -6.4028 H   0  0  0  0  0  0  0  0  0  0  0  0
    1.1685   -3.3334   -4.8060 H   0  0  0  0  0  0  0  0  0  0  0  0
    1.0514   -3.5055   -2.3438 H   0  0  0  0  0  0  0  0  0  0  0  0
   -1.7933   -2.2963    0.0455 H   0  0  0  0  0  0  0  0  0  0  0  0
   -3.8691   -1.3738    0.0383 H   0  0  0  0  0  0  0  0  0  0  0  0
   -2.6335    1.9133    0.0789 H   0  0  0  0  0  0  0  0  0  0  0  0
   -0.8701    3.2672    0.0145 H   0  0  0  0  0  0  0  0  0  0  0  0
  1  2  2  0  0  0  0
  2  3  1  0  0  0  0
  2 20  1  0  0  0  0
  3  4  1  0  0  0  0
  3 21  1  0  0  0  0
  3 22  1  0  0  0  0
  4  5  1  0  0  0  0
  4 12  1  0  0  0  0
  4 23  1  0  0  0  0
  5  6  1  0  0  0  0
  5 11  2  0  0  0  0
  6  7  2  0  0  0  0
  6 24  1  0  0  0  0
  7  8  1  0  0  0  0
  7 25  1  0  0  0  0
  8  9  1  0  0  0  0
  8 10  2  0  0  0  0
  9 26  1  0  0  0  0
 10 11  1  0  0  0  0
 10 27  1  0  0  0  0
 11 28  1  0  0  0  0
 12 13  1  0  0  0  0
 13 14  1  0  0  0  0
 13 20  2  0  0  0  0
 14 15  2  0  0  0  0
 14 29  1  0  0  0  0
 15 16  1  0  0  0  0
 15 17  1  0  0  0  0
 16 30  1  0  0  0  0
 17 18  2  0  0  0  0
 17 31  1  0  0  0  0
 18 19  1  0  0  0  0
 18 20  1  0  0  0  0
 19 32  1  0  0  0  0
M  END
>  <Line_Number>
36


> <IC50>
328000

$$$$
