4551278.0
 OpenBabel09092522103D

 38 40  0  0  1  0  0  0  0  0999 V2000
    1.5906    0.5001   -0.9382 C   0  0  0  0  0  0  0  0  0  0  0  0
    2.5745   -0.2665   -0.2589 O   0  0  0  0  0  0  0  0  0  0  0  0
    3.3840   -1.0783   -1.0012 C   0  0  0  0  0  0  0  0  0  0  0  0
    3.4804   -1.1206   -2.3917 C   0  0  0  0  0  0  0  0  0  0  0  0
    4.3478   -2.0315   -3.0167 C   0  0  0  0  0  0  0  0  0  0  0  0
    5.1131   -2.9273   -2.2570 C   0  0  0  0  0  0  0  0  0  0  0  0
    5.8168   -4.1235   -2.8761 C   0  0  3  0  0  0  0  0  0  0  0  0
    6.8100   -3.8833   -4.0384 C   0  0  0  0  0  0  0  0  0  0  0  0
    6.7794   -4.8292   -5.1338 O   0  0  0  0  0  0  0  0  0  0  0  0
    6.4207   -6.1034   -4.7788 C   0  0  0  0  0  0  0  0  0  0  0  0
    7.0286   -7.1859   -5.4177 C   0  0  0  0  0  0  0  0  0  0  0  0
    6.6963   -8.4901   -5.0282 C   0  0  0  0  0  0  0  0  0  0  0  0
    7.2192   -9.6493   -5.5354 O   0  0  0  0  0  0  0  0  0  0  0  0
    8.1138   -9.5330   -6.6300 C   0  0  0  0  0  0  0  0  0  0  0  0
    5.7496   -8.6912   -4.0230 C   0  0  0  0  0  0  0  0  0  0  0  0
    5.1028   -7.6136   -3.4288 C   0  0  0  0  0  0  0  0  0  0  0  0
    5.4345   -6.3190   -3.8222 C   0  0  0  0  0  0  0  0  0  0  0  0
    4.7376   -5.1252   -3.2728 C   0  0  0  0  0  0  0  0  0  0  0  0
    5.0370   -2.8480   -0.8585 C   0  0  0  0  0  0  0  0  0  0  0  0
    4.1826   -1.9334   -0.2423 C   0  0  0  0  0  0  0  0  0  0  0  0
    1.1951    1.2296   -0.2238 H   0  0  0  0  0  0  0  0  0  0  0  0
    0.7611   -0.1373   -1.2614 H   0  0  0  0  0  0  0  0  0  0  0  0
    2.0053    1.0662   -1.7765 H   0  0  0  0  0  0  0  0  0  0  0  0
    2.8776   -0.4789   -3.0249 H   0  0  0  0  0  0  0  0  0  0  0  0
    4.3655   -2.0739   -4.1041 H   0  0  0  0  0  0  0  0  0  0  0  0
    6.4229   -4.5873   -2.0816 H   0  0  0  0  0  0  0  0  0  0  0  0
    7.8342   -3.9059   -3.6405 H   0  0  0  0  0  0  0  0  0  0  0  0
    6.6871   -2.8884   -4.4778 H   0  0  0  0  0  0  0  0  0  0  0  0
    7.7639   -6.9874   -6.1887 H   0  0  0  0  0  0  0  0  0  0  0  0
    8.4096  -10.5459   -6.9219 H   0  0  0  0  0  0  0  0  0  0  0  0
    9.0197   -8.9910   -6.3422 H   0  0  0  0  0  0  0  0  0  0  0  0
    7.6252   -9.0661   -7.4911 H   0  0  0  0  0  0  0  0  0  0  0  0
    5.5058   -9.7013   -3.7063 H   0  0  0  0  0  0  0  0  0  0  0  0
    4.3504   -7.7850   -2.6655 H   0  0  0  0  0  0  0  0  0  0  0  0
    4.1144   -5.3928   -2.4126 H   0  0  0  0  0  0  0  0  0  0  0  0
    4.0697   -4.7180   -4.0447 H   0  0  0  0  0  0  0  0  0  0  0  0
    5.5971   -3.5395   -0.2323 H   0  0  0  0  0  0  0  0  0  0  0  0
    4.1090   -1.9162    0.8424 H   0  0  0  0  0  0  0  0  0  0  0  0
  1  2  1  0  0  0  0
  1 21  1  0  0  0  0
  1 22  1  0  0  0  0
  1 23  1  0  0  0  0
  2  3  1  0  0  0  0
  3  4  1  0  0  0  0
  3 20  2  0  0  0  0
  4  5  2  0  0  0  0
  4 24  1  0  0  0  0
  5  6  1  0  0  0  0
  5 25  1  0  0  0  0
  6  7  1  0  0  0  0
  6 19  2  0  0  0  0
  7  8  1  0  0  0  0
  7 18  1  0  0  0  0
  7 26  1  0  0  0  0
  8  9  1  0  0  0  0
  8 27  1  0  0  0  0
  8 28  1  0  0  0  0
  9 10  1  0  0  0  0
 10 11  1  0  0  0  0
 10 17  2  0  0  0  0
 11 12  2  0  0  0  0
 11 29  1  0  0  0  0
 12 13  1  0  0  0  0
 12 15  1  0  0  0  0
 13 14  1  0  0  0  0
 14 30  1  0  0  0  0
 14 31  1  0  0  0  0
 14 32  1  0  0  0  0
 15 16  2  0  0  0  0
 15 33  1  0  0  0  0
 16 17  1  0  0  0  0
 16 34  1  0  0  0  0
 17 18  1  0  0  0  0
 18 35  1  0  0  0  0
 18 36  1  0  0  0  0
 19 20  1  0  0  0  0
 19 37  1  0  0  0  0
 20 38  1  0  0  0  0
M  END
>  <Line_Number>
38


> <IC50>
1783000

$$$$
