5280378.0
 OpenBabel09092522103D

 32 34  0  0  0  0  0  0  0  0999 V2000
    0.6367   -0.0935   -0.2493 C   0  0  0  0  0  0  0  0  0  0  0  0
    2.0026   -0.5035   -0.3267 O   0  0  0  0  0  0  0  0  0  0  0  0
    2.7216    0.0342   -1.3592 C   0  0  0  0  0  0  0  0  0  0  0  0
    2.1633    0.6735   -2.4551 C   0  0  0  0  0  0  0  0  0  0  0  0
    2.9906    1.3128   -3.3775 C   0  0  0  0  0  0  0  0  0  0  0  0
    4.3843    1.3734   -3.1874 C   0  0  0  0  0  0  0  0  0  0  0  0
    5.0910    2.5246   -3.8170 C   0  0  0  0  0  0  0  0  0  0  0  0
    5.2092    3.5426   -2.9338 C   0  0  0  0  0  0  0  0  0  0  0  0
    4.6612    4.8033   -3.1457 O   0  0  0  0  0  0  0  0  0  0  0  0
    3.5899    4.7823   -4.0172 C   0  0  0  0  0  0  0  0  0  0  0  0
    2.3744    5.3377   -3.6383 C   0  0  0  0  0  0  0  0  0  0  0  0
    1.2751    5.1479   -4.4785 C   0  0  0  0  0  0  0  0  0  0  0  0
    0.0179    5.5096   -4.0882 O   0  0  0  0  0  0  0  0  0  0  0  0
    1.4007    4.5164   -5.7191 C   0  0  0  0  0  0  0  0  0  0  0  0
    2.6212    3.9506   -6.0920 C   0  0  0  0  0  0  0  0  0  0  0  0
    3.6840    4.0302   -5.1908 C   0  0  0  0  0  0  0  0  0  0  0  0
    4.7341    2.9976   -5.1979 C   0  0  0  0  0  0  0  0  0  0  0  0
    5.1467    2.4651   -6.2217 O   0  0  0  0  0  0  0  0  0  0  0  0
    4.9505    0.6114   -2.1652 C   0  0  0  0  0  0  0  0  0  0  0  0
    4.1157   -0.0610   -1.2596 C   0  0  0  0  0  0  0  0  0  0  0  0
    0.2260   -0.4544    0.6990 H   0  0  0  0  0  0  0  0  0  0  0  0
    0.0524   -0.5398   -1.0586 H   0  0  0  0  0  0  0  0  0  0  0  0
    0.5389    0.9996   -0.2535 H   0  0  0  0  0  0  0  0  0  0  0  0
    1.0916    0.7581   -2.6020 H   0  0  0  0  0  0  0  0  0  0  0  0
    2.4959    1.8564   -4.1731 H   0  0  0  0  0  0  0  0  0  0  0  0
    5.3341    3.4207   -1.8614 H   0  0  0  0  0  0  0  0  0  0  0  0
    2.2744    5.8143   -2.6696 H   0  0  0  0  0  0  0  0  0  0  0  0
    0.0261    5.6983   -3.1340 H   0  0  0  0  0  0  0  0  0  0  0  0
    0.5268    4.3871   -6.3521 H   0  0  0  0  0  0  0  0  0  0  0  0
    2.7009    3.3511   -6.9917 H   0  0  0  0  0  0  0  0  0  0  0  0
    6.0258    0.6089   -2.0024 H   0  0  0  0  0  0  0  0  0  0  0  0
    4.5548   -0.6008   -0.4239 H   0  0  0  0  0  0  0  0  0  0  0  0
  1  2  1  0  0  0  0
  1 21  1  0  0  0  0
  1 22  1  0  0  0  0
  1 23  1  0  0  0  0
  2  3  1  0  0  0  0
  3  4  1  0  0  0  0
  3 20  2  0  0  0  0
  4  5  2  0  0  0  0
  4 24  1  0  0  0  0
  5  6  1  0  0  0  0
  5 25  1  0  0  0  0
  6  7  1  0  0  0  0
  6 19  2  0  0  0  0
  7  8  2  0  0  0  0
  7 17  1  0  0  0  0
  8  9  1  0  0  0  0
  8 26  1  0  0  0  0
  9 10  1  0  0  0  0
 10 11  1  0  0  0  0
 10 16  2  0  0  0  0
 11 12  2  0  0  0  0
 11 27  1  0  0  0  0
 12 13  1  0  0  0  0
 12 14  1  0  0  0  0
 13 28  1  0  0  0  0
 14 15  2  0  0  0  0
 14 29  1  0  0  0  0
 15 16  1  0  0  0  0
 15 30  1  0  0  0  0
 16 17  1  0  0  0  0
 17 18  2  0  0  0  0
 19 20  1  0  0  0  0
 19 31  1  0  0  0  0
 20 32  1  0  0  0  0
M  END
>  <Line_Number>
39


> <IC50>
2003000

$$$$
