270058.0
 OpenBabel09092522103D

 39 40  0  0  0  0  0  0  0  0999 V2000
    1.0046   -0.1525    0.0867 C   0  0  0  0  0  0  0  0  0  0  0  0
    2.4261   -0.1343    0.0891 O   0  0  0  0  0  0  0  0  0  0  0  0
    3.0317    1.0892    0.0474 C   0  0  0  0  0  0  0  0  0  0  0  0
    2.3961    2.3175    0.0233 C   0  0  0  0  0  0  0  0  0  0  0  0
    3.1588    3.4935   -0.0365 C   0  0  0  0  0  0  0  0  0  0  0  0
    2.4620    4.6735   -0.1029 O   0  0  0  0  0  0  0  0  0  0  0  0
    4.5746    3.4836   -0.0529 C   0  0  0  0  0  0  0  0  0  0  0  0
    5.2801    4.8022   -0.1828 C   0  0  0  0  0  0  0  0  0  0  0  0
    6.2121    4.9134   -0.9798 O   0  0  0  0  0  0  0  0  0  0  0  0
    4.7952    6.0423    0.5647 C   0  0  0  0  0  0  0  0  0  0  0  0
    4.5550    5.8295    2.0536 C   0  0  0  0  0  0  0  0  0  0  0  0
    3.9854    7.0593    2.7256 C   0  0  0  0  0  0  0  0  0  0  0  0
    2.5979    7.2453    2.8122 C   0  0  0  0  0  0  0  0  0  0  0  0
    2.0731    8.3669    3.4563 C   0  0  0  0  0  0  0  0  0  0  0  0
    2.9249    9.3191    4.0115 C   0  0  0  0  0  0  0  0  0  0  0  0
    4.3069    9.1537    3.9124 C   0  0  0  0  0  0  0  0  0  0  0  0
    4.8346    8.0323    3.2684 C   0  0  0  0  0  0  0  0  0  0  0  0
    5.2171    2.2297   -0.0248 C   0  0  0  0  0  0  0  0  0  0  0  0
    6.5288    1.8530   -0.0112 O   0  0  0  0  0  0  0  0  0  0  0  0
    7.6043    2.7657   -0.0418 C   0  0  0  0  0  0  0  0  0  0  0  0
    4.4235    1.0608    0.0227 C   0  0  0  0  0  0  0  0  0  0  0  0
    0.6824   -1.1982    0.0913 H   0  0  0  0  0  0  0  0  0  0  0  0
    0.6027    0.3156   -0.8179 H   0  0  0  0  0  0  0  0  0  0  0  0
    0.6053    0.3242    0.9884 H   0  0  0  0  0  0  0  0  0  0  0  0
    1.3150    2.3802    0.0360 H   0  0  0  0  0  0  0  0  0  0  0  0
    1.5046    4.5038   -0.0806 H   0  0  0  0  0  0  0  0  0  0  0  0
    3.9222    6.4601    0.0510 H   0  0  0  0  0  0  0  0  0  0  0  0
    5.5755    6.8093    0.4483 H   0  0  0  0  0  0  0  0  0  0  0  0
    5.4994    5.5532    2.5403 H   0  0  0  0  0  0  0  0  0  0  0  0
    3.8805    4.9877    2.2414 H   0  0  0  0  0  0  0  0  0  0  0  0
    1.9196    6.5155    2.3803 H   0  0  0  0  0  0  0  0  0  0  0  0
    0.9956    8.4991    3.5258 H   0  0  0  0  0  0  0  0  0  0  0  0
    2.5177   10.1860    4.5237 H   0  0  0  0  0  0  0  0  0  0  0  0
    4.9745    9.8979    4.3386 H   0  0  0  0  0  0  0  0  0  0  0  0
    5.9146    7.9212    3.1990 H   0  0  0  0  0  0  0  0  0  0  0  0
    8.5172    2.1905    0.1530 H   0  0  0  0  0  0  0  0  0  0  0  0
    7.5291    3.5187    0.7452 H   0  0  0  0  0  0  0  0  0  0  0  0
    7.7252    3.1911   -1.0401 H   0  0  0  0  0  0  0  0  0  0  0  0
    4.9209    0.0903    0.0358 H   0  0  0  0  0  0  0  0  0  0  0  0
  1  2  1  0  0  0  0
  1 22  1  0  0  0  0
  1 23  1  0  0  0  0
  1 24  1  0  0  0  0
  2  3  1  0  0  0  0
  3  4  1  0  0  0  0
  3 21  2  0  0  0  0
  4  5  2  0  0  0  0
  4 25  1  0  0  0  0
  5  6  1  0  0  0  0
  5  7  1  0  0  0  0
  6 26  1  0  0  0  0
  7  8  1  0  0  0  0
  7 18  2  0  0  0  0
  8  9  2  0  0  0  0
  8 10  1  0  0  0  0
 10 11  1  0  0  0  0
 10 27  1  0  0  0  0
 10 28  1  0  0  0  0
 11 12  1  0  0  0  0
 11 29  1  0  0  0  0
 11 30  1  0  0  0  0
 12 13  1  0  0  0  0
 12 17  2  0  0  0  0
 13 14  2  0  0  0  0
 13 31  1  0  0  0  0
 14 15  1  0  0  0  0
 14 32  1  0  0  0  0
 15 16  2  0  0  0  0
 15 33  1  0  0  0  0
 16 17  1  0  0  0  0
 16 34  1  0  0  0  0
 17 35  1  0  0  0  0
 18 19  1  0  0  0  0
 18 21  1  0  0  0  0
 19 20  1  0  0  0  0
 20 36  1  0  0  0  0
 20 37  1  0  0  0  0
 20 38  1  0  0  0  0
 21 39  1  0  0  0  0
M  END
>  <Line_Number>
41


> <IC50>
1668000

$$$$
