72197322.0
 OpenBabel09092522103D

 31 33  0  0  1  0  0  0  0  0999 V2000
    0.9649   -0.0794    0.0299 O   0  0  0  0  0  0  0  0  0  0  0  0
    2.3295   -0.1151    0.0157 C   0  0  0  0  0  0  0  0  0  0  0  0
    3.0706    1.0606    0.0074 C   0  0  0  0  0  0  0  0  0  0  0  0
    4.4717    1.0057   -0.0095 C   0  0  0  0  0  0  0  0  0  0  0  0
    5.1537   -0.2234   -0.0227 C   0  0  0  0  0  0  0  0  0  0  0  0
    4.3866   -1.3987   -0.0084 C   0  0  0  0  0  0  0  0  0  0  0  0
    4.9134   -2.6686   -0.0112 O   0  0  0  0  0  0  0  0  0  0  0  0
    2.9873   -1.3384    0.0108 C   0  0  0  0  0  0  0  0  0  0  0  0
    2.2750   -2.5088    0.0240 O   0  0  0  0  0  0  0  0  0  0  0  0
    6.6142   -0.2112   -0.0580 C   0  0  0  0  0  0  0  0  0  0  0  0
    7.2397    0.9697   -0.0564 C   0  0  0  0  0  0  0  0  0  0  0  0
    6.5201    2.2901   -0.0040 C   0  0  3  0  0  0  0  0  0  0  0  0
    6.9494    3.1110    1.2009 C   0  0  0  0  0  0  0  0  0  0  0  0
    7.5555    4.3654    1.0318 C   0  0  0  0  0  0  0  0  0  0  0  0
    7.9719    5.1072    2.1395 C   0  0  0  0  0  0  0  0  0  0  0  0
    7.7873    4.6061    3.4268 C   0  0  0  0  0  0  0  0  0  0  0  0
    7.1762    3.3684    3.6112 C   0  0  0  0  0  0  0  0  0  0  0  0
    6.7550    2.6286    2.5066 C   0  0  0  0  0  0  0  0  0  0  0  0
    5.0853    2.2298   -0.0073 O   0  0  0  0  0  0  0  0  0  0  0  0
    0.6695    0.8440    0.0223 H   0  0  0  0  0  0  0  0  0  0  0  0
    2.5817    2.0301    0.0157 H   0  0  0  0  0  0  0  0  0  0  0  0
    5.8810   -2.6149   -0.0087 H   0  0  0  0  0  0  0  0  0  0  0  0
    2.9538   -3.2121    0.0180 H   0  0  0  0  0  0  0  0  0  0  0  0
    7.1907   -1.1250   -0.0840 H   0  0  0  0  0  0  0  0  0  0  0  0
    8.3257    1.0042   -0.0821 H   0  0  0  0  0  0  0  0  0  0  0  0
    6.7917    2.8343   -0.9175 H   0  0  0  0  0  0  0  0  0  0  0  0
    7.7075    4.7759    0.0360 H   0  0  0  0  0  0  0  0  0  0  0  0
    8.4411    6.0776    1.9980 H   0  0  0  0  0  0  0  0  0  0  0  0
    8.1156    5.1828    4.2876 H   0  0  0  0  0  0  0  0  0  0  0  0
    7.0266    2.9777    4.6143 H   0  0  0  0  0  0  0  0  0  0  0  0
    6.2732    1.6649    2.6664 H   0  0  0  0  0  0  0  0  0  0  0  0
  1  2  1  0  0  0  0
  1 20  1  0  0  0  0
  2  3  1  0  0  0  0
  2  8  2  0  0  0  0
  3  4  2  0  0  0  0
  3 21  1  0  0  0  0
  4  5  1  0  0  0  0
  4 19  1  0  0  0  0
  5  6  2  0  0  0  0
  5 10  1  0  0  0  0
  6  7  1  0  0  0  0
  6  8  1  0  0  0  0
  7 22  1  0  0  0  0
  8  9  1  0  0  0  0
  9 23  1  0  0  0  0
 10 11  2  0  0  0  0
 10 24  1  0  0  0  0
 11 12  1  0  0  0  0
 11 25  1  0  0  0  0
 12 13  1  0  0  0  0
 12 19  1  0  0  0  0
 12 26  1  0  0  0  0
 13 14  1  0  0  0  0
 13 18  2  0  0  0  0
 14 15  2  0  0  0  0
 14 27  1  0  0  0  0
 15 16  1  0  0  0  0
 15 28  1  0  0  0  0
 16 17  2  0  0  0  0
 16 29  1  0  0  0  0
 17 18  1  0  0  0  0
 17 30  1  0  0  0  0
 18 31  1  0  0  0  0
M  END
>  <Line_Number>
42


> <IC50>
22100

$$$$
