72197320.0
 OpenBabel09092522103D

 48 50  0  0  1  0  0  0  0  0999 V2000
    3.9758    9.7189   -6.9919 C   0  0  0  0  0  0  0  0  0  0  0  0
    4.9000    8.7242   -6.5629 O   0  0  0  0  0  0  0  0  0  0  0  0
    4.4940    7.4242   -6.6526 C   0  0  0  0  0  0  0  0  0  0  0  0
    3.2635    6.9825   -7.1551 C   0  0  0  0  0  0  0  0  0  0  0  0
    2.9802    5.6150   -7.2087 C   0  0  0  0  0  0  0  0  0  0  0  0
    3.9184    4.6732   -6.7587 C   0  0  0  0  0  0  0  0  0  0  0  0
    3.6389    3.1901   -6.8784 C   0  0  3  0  0  0  0  0  0  0  0  0
    4.6836    2.5128   -7.7282 C   0  0  0  0  0  0  0  0  0  0  0  0
    4.9605    1.2223   -7.5224 C   0  0  0  0  0  0  0  0  0  0  0  0
    4.0764    0.4906   -6.6074 C   0  0  0  0  0  0  0  0  0  0  0  0
    3.8080   -0.8898   -6.6888 C   0  0  0  0  0  0  0  0  0  0  0  0
    4.3533   -1.6894   -7.6676 O   0  0  0  0  0  0  0  0  0  0  0  0
    4.3260   -1.2133   -9.0135 C   0  0  0  0  0  0  0  0  0  0  0  0
    3.0094   -1.5084   -5.6857 C   0  0  0  0  0  0  0  0  0  0  0  0
    2.6515   -2.8330   -5.6682 O   0  0  0  0  0  0  0  0  0  0  0  0
    2.8706   -3.6787   -6.7828 C   0  0  0  0  0  0  0  0  0  0  0  0
    2.5302   -0.7415   -4.5843 C   0  0  0  0  0  0  0  0  0  0  0  0
    1.7326   -1.1848   -3.5563 O   0  0  0  0  0  0  0  0  0  0  0  0
    1.2741   -2.5213   -3.4862 C   0  0  0  0  0  0  0  0  0  0  0  0
    2.8282    0.6340   -4.5096 C   0  0  0  0  0  0  0  0  0  0  0  0
    2.4343    1.4729   -3.4896 O   0  0  0  0  0  0  0  0  0  0  0  0
    2.5653    0.9521   -2.1672 C   0  0  0  0  0  0  0  0  0  0  0  0
    3.5059    1.2471   -5.5671 C   0  0  0  0  0  0  0  0  0  0  0  0
    3.6254    2.6253   -5.5502 O   0  0  0  0  0  0  0  0  0  0  0  0
    5.1359    5.1299   -6.2368 C   0  0  0  0  0  0  0  0  0  0  0  0
    5.4208    6.4911   -6.1974 C   0  0  0  0  0  0  0  0  0  0  0  0
    4.4362   10.6975   -6.8234 H   0  0  0  0  0  0  0  0  0  0  0  0
    3.0542    9.6775   -6.3982 H   0  0  0  0  0  0  0  0  0  0  0  0
    3.7650    9.6204   -8.0593 H   0  0  0  0  0  0  0  0  0  0  0  0
    2.5139    7.6723   -7.5220 H   0  0  0  0  0  0  0  0  0  0  0  0
    2.0232    5.2908   -7.6079 H   0  0  0  0  0  0  0  0  0  0  0  0
    2.6486    3.0457   -7.3318 H   0  0  0  0  0  0  0  0  0  0  0  0
    5.2551    3.0975   -8.4414 H   0  0  0  0  0  0  0  0  0  0  0  0
    5.7909    0.7304   -8.0073 H   0  0  0  0  0  0  0  0  0  0  0  0
    4.1370   -2.0647   -9.6736 H   0  0  0  0  0  0  0  0  0  0  0  0
    5.3145   -0.8320   -9.2871 H   0  0  0  0  0  0  0  0  0  0  0  0
    3.5483   -0.4650   -9.2006 H   0  0  0  0  0  0  0  0  0  0  0  0
    2.3562   -4.6237   -6.5791 H   0  0  0  0  0  0  0  0  0  0  0  0
    3.9333   -3.9124   -6.8881 H   0  0  0  0  0  0  0  0  0  0  0  0
    2.4369   -3.2701   -7.7008 H   0  0  0  0  0  0  0  0  0  0  0  0
    0.6539   -2.6053   -2.5877 H   0  0  0  0  0  0  0  0  0  0  0  0
    2.1049   -3.2226   -3.3651 H   0  0  0  0  0  0  0  0  0  0  0  0
    0.6346   -2.7678   -4.3388 H   0  0  0  0  0  0  0  0  0  0  0  0
    2.8423    1.7760   -1.5016 H   0  0  0  0  0  0  0  0  0  0  0  0
    3.3420    0.1837   -2.0739 H   0  0  0  0  0  0  0  0  0  0  0  0
    1.5975    0.5714   -1.8257 H   0  0  0  0  0  0  0  0  0  0  0  0
    5.8764    4.4161   -5.8779 H   0  0  0  0  0  0  0  0  0  0  0  0
    6.3795    6.8272   -5.8084 H   0  0  0  0  0  0  0  0  0  0  0  0
  1  2  1  0  0  0  0
  1 27  1  0  0  0  0
  1 28  1  0  0  0  0
  1 29  1  0  0  0  0
  2  3  1  0  0  0  0
  3  4  1  0  0  0  0
  3 26  2  0  0  0  0
  4  5  2  0  0  0  0
  4 30  1  0  0  0  0
  5  6  1  0  0  0  0
  5 31  1  0  0  0  0
  6  7  1  0  0  0  0
  6 25  2  0  0  0  0
  7  8  1  0  0  0  0
  7 24  1  0  0  0  0
  7 32  1  0  0  0  0
  8  9  2  0  0  0  0
  8 33  1  0  0  0  0
  9 10  1  0  0  0  0
  9 34  1  0  0  0  0
 10 11  1  0  0  0  0
 10 23  2  0  0  0  0
 11 12  1  0  0  0  0
 11 14  2  0  0  0  0
 12 13  1  0  0  0  0
 13 35  1  0  0  0  0
 13 36  1  0  0  0  0
 13 37  1  0  0  0  0
 14 15  1  0  0  0  0
 14 17  1  0  0  0  0
 15 16  1  0  0  0  0
 16 38  1  0  0  0  0
 16 39  1  0  0  0  0
 16 40  1  0  0  0  0
 17 18  1  0  0  0  0
 17 20  2  0  0  0  0
 18 19  1  0  0  0  0
 19 41  1  0  0  0  0
 19 42  1  0  0  0  0
 19 43  1  0  0  0  0
 20 21  1  0  0  0  0
 20 23  1  0  0  0  0
 21 22  1  0  0  0  0
 22 44  1  0  0  0  0
 22 45  1  0  0  0  0
 22 46  1  0  0  0  0
 23 24  1  0  0  0  0
 25 26  1  0  0  0  0
 25 47  1  0  0  0  0
 26 48  1  0  0  0  0
M  END
>  <Line_Number>
44


> <IC50>
4172000

$$$$
