5280443.0
 OpenBabel09092522103D

 30 32  0  0  0  0  0  0  0  0999 V2000
   -2.4183    1.6136    0.0485 O   0  0  0  0  0  0  0  0  0  0  0  0
   -1.8832    0.5155    0.0121 C   0  0  0  0  0  0  0  0  0  0  0  0
   -2.7365   -0.6860   -0.0493 C   0  0  0  0  0  0  0  0  0  0  0  0
   -2.1649   -1.8944   -0.0399 C   0  0  0  0  0  0  0  0  0  0  0  0
   -2.9840   -3.1085   -0.1048 C   0  0  0  0  0  0  0  0  0  0  0  0
   -3.3287   -3.6654   -1.3449 C   0  0  0  0  0  0  0  0  0  0  0  0
   -4.0861   -4.8392   -1.4081 C   0  0  0  0  0  0  0  0  0  0  0  0
   -4.5010   -5.4489   -0.2285 C   0  0  0  0  0  0  0  0  0  0  0  0
   -5.2221   -6.6058   -0.2406 O   0  0  0  0  0  0  0  0  0  0  0  0
   -4.1866   -4.8965    1.0080 C   0  0  0  0  0  0  0  0  0  0  0  0
   -3.4290   -3.7249    1.0716 C   0  0  0  0  0  0  0  0  0  0  0  0
   -0.8060   -2.1246    0.0293 O   0  0  0  0  0  0  0  0  0  0  0  0
    0.0359   -1.0369    0.0306 C   0  0  0  0  0  0  0  0  0  0  0  0
    1.4064   -1.3215    0.0328 C   0  0  0  0  0  0  0  0  0  0  0  0
    2.3181   -0.2720    0.0130 C   0  0  0  0  0  0  0  0  0  0  0  0
    3.6626   -0.4931   -0.0024 O   0  0  0  0  0  0  0  0  0  0  0  0
    1.8857    1.0495    0.0006 C   0  0  0  0  0  0  0  0  0  0  0  0
    0.5172    1.3298    0.0054 C   0  0  0  0  0  0  0  0  0  0  0  0
    0.1162    2.6340   -0.0159 O   0  0  0  0  0  0  0  0  0  0  0  0
   -0.4192    0.2868    0.0196 C   0  0  0  0  0  0  0  0  0  0  0  0
   -3.8054   -0.5262   -0.0981 H   0  0  0  0  0  0  0  0  0  0  0  0
   -3.0032   -3.1916   -2.2686 H   0  0  0  0  0  0  0  0  0  0  0  0
   -4.3355   -5.2597   -2.3773 H   0  0  0  0  0  0  0  0  0  0  0  0
   -5.3313   -6.8968   -1.1606 H   0  0  0  0  0  0  0  0  0  0  0  0
   -4.5236   -5.3808    1.9200 H   0  0  0  0  0  0  0  0  0  0  0  0
   -3.1842   -3.3024    2.0431 H   0  0  0  0  0  0  0  0  0  0  0  0
    1.7377   -2.3549    0.0442 H   0  0  0  0  0  0  0  0  0  0  0  0
    3.8308   -1.4507   -0.0218 H   0  0  0  0  0  0  0  0  0  0  0  0
    2.6248    1.8448   -0.0178 H   0  0  0  0  0  0  0  0  0  0  0  0
    0.8860    3.2249   -0.0085 H   0  0  0  0  0  0  0  0  0  0  0  0
  1  2  2  0  0  0  0
  2  3  1  0  0  0  0
  2 20  1  0  0  0  0
  3  4  2  0  0  0  0
  3 21  1  0  0  0  0
  4  5  1  0  0  0  0
  4 12  1  0  0  0  0
  5  6  1  0  0  0  0
  5 11  2  0  0  0  0
  6  7  2  0  0  0  0
  6 22  1  0  0  0  0
  7  8  1  0  0  0  0
  7 23  1  0  0  0  0
  8  9  1  0  0  0  0
  8 10  2  0  0  0  0
  9 24  1  0  0  0  0
 10 11  1  0  0  0  0
 10 25  1  0  0  0  0
 11 26  1  0  0  0  0
 12 13  1  0  0  0  0
 13 14  1  0  0  0  0
 13 20  2  0  0  0  0
 14 15  2  0  0  0  0
 14 27  1  0  0  0  0
 15 16  1  0  0  0  0
 15 17  1  0  0  0  0
 16 28  1  0  0  0  0
 17 18  2  0  0  0  0
 17 29  1  0  0  0  0
 18 19  1  0  0  0  0
 18 20  1  0  0  0  0
 19 30  1  0  0  0  0
M  END
>  <Line_Number>
45


> <IC50>
138000

$$$$
