25192450.0
 OpenBabel09092522103D

 32 34  0  0  1  0  0  0  0  0999 V2000
    1.1028    0.1505    0.0275 O   0  0  0  0  0  0  0  0  0  0  0  0
    2.4639    0.0593    0.0165 C   0  0  0  0  0  0  0  0  0  0  0  0
    3.1088   -1.1733    0.0121 C   0  0  0  0  0  0  0  0  0  0  0  0
    4.5048   -1.2072   -0.0002 C   0  0  0  0  0  0  0  0  0  0  0  0
    5.1552   -2.4133   -0.0028 O   0  0  0  0  0  0  0  0  0  0  0  0
    5.2583   -0.0233   -0.0086 C   0  0  0  0  0  0  0  0  0  0  0  0
    4.5853    1.2043   -0.0015 C   0  0  0  0  0  0  0  0  0  0  0  0
    3.1898    1.2445    0.0108 C   0  0  0  0  0  0  0  0  0  0  0  0
    5.2096    2.4205    0.0020 O   0  0  0  0  0  0  0  0  0  0  0  0
    6.6484    2.4595    0.0048 C   0  0  3  0  0  0  0  0  0  0  0  0
    7.0808    3.2974    1.1965 C   0  0  0  0  0  0  0  0  0  0  0  0
    6.7292    2.9241    2.5102 C   0  0  0  0  0  0  0  0  0  0  0  0
    7.1105    3.7029    3.6067 C   0  0  0  0  0  0  0  0  0  0  0  0
    7.8474    4.8593    3.3883 C   0  0  0  0  0  0  0  0  0  0  0  0
    8.2351    5.6737    4.4166 O   0  0  0  0  0  0  0  0  0  0  0  0
    8.2124    5.2284    2.0964 C   0  0  0  0  0  0  0  0  0  0  0  0
    8.9418    6.3647    1.8905 O   0  0  0  0  0  0  0  0  0  0  0  0
    7.8402    4.4609    1.0022 C   0  0  0  0  0  0  0  0  0  0  0  0
    7.3588    1.1331   -0.0233 C   0  0  0  0  0  0  0  0  0  0  0  0
    6.7159   -0.0376   -0.0271 C   0  0  0  0  0  0  0  0  0  0  0  0
    0.7216   -0.7424    0.0142 H   0  0  0  0  0  0  0  0  0  0  0  0
    2.5347   -2.0928    0.0186 H   0  0  0  0  0  0  0  0  0  0  0  0
    4.5014   -3.1304   -0.0084 H   0  0  0  0  0  0  0  0  0  0  0  0
    2.6730    2.2001    0.0165 H   0  0  0  0  0  0  0  0  0  0  0  0
    6.9234    2.9880   -0.9170 H   0  0  0  0  0  0  0  0  0  0  0  0
    6.1450    2.0203    2.6768 H   0  0  0  0  0  0  0  0  0  0  0  0
    6.8212    3.3923    4.6050 H   0  0  0  0  0  0  0  0  0  0  0  0
    7.8615    5.3132    5.2391 H   0  0  0  0  0  0  0  0  0  0  0  0
    9.0677    6.7357    2.7866 H   0  0  0  0  0  0  0  0  0  0  0  0
    8.1351    4.7789    0.0059 H   0  0  0  0  0  0  0  0  0  0  0  0
    8.4442    1.1501   -0.0440 H   0  0  0  0  0  0  0  0  0  0  0  0
    7.2422   -0.9849   -0.0458 H   0  0  0  0  0  0  0  0  0  0  0  0
  1  2  1  0  0  0  0
  1 21  1  0  0  0  0
  2  3  1  0  0  0  0
  2  8  2  0  0  0  0
  3  4  2  0  0  0  0
  3 22  1  0  0  0  0
  4  5  1  0  0  0  0
  4  6  1  0  0  0  0
  5 23  1  0  0  0  0
  6  7  2  0  0  0  0
  6 20  1  0  0  0  0
  7  8  1  0  0  0  0
  7  9  1  0  0  0  0
  8 24  1  0  0  0  0
  9 10  1  0  0  0  0
 10 11  1  0  0  0  0
 10 19  1  0  0  0  0
 10 25  1  0  0  0  0
 11 12  1  0  0  0  0
 11 18  2  0  0  0  0
 12 13  2  0  0  0  0
 12 26  1  0  0  0  0
 13 14  1  0  0  0  0
 13 27  1  0  0  0  0
 14 15  1  0  0  0  0
 14 16  2  0  0  0  0
 15 28  1  0  0  0  0
 16 17  1  0  0  0  0
 16 18  1  0  0  0  0
 17 29  1  0  0  0  0
 18 30  1  0  0  0  0
 19 20  2  0  0  0  0
 19 31  1  0  0  0  0
 20 32  1  0  0  0  0
M  END
>  <Line_Number>
47


> <IC50>
4420

$$$$
