14284966.0
 OpenBabel09092522103D

 39 40  0  0  1  0  0  0  0  0999 V2000
    2.6833   -1.6252    0.1655 C   0  0  0  0  0  0  0  0  0  0  0  0
    2.2431   -0.2972    0.4155 O   0  0  0  0  0  0  0  0  0  0  0  0
    3.0702    0.5026    1.1553 C   0  0  0  0  0  0  0  0  0  0  0  0
    4.3294    0.1589    1.6453 C   0  0  0  0  0  0  0  0  0  0  0  0
    5.0643    1.0739    2.4139 C   0  0  0  0  0  0  0  0  0  0  0  0
    4.5545    2.3473    2.7074 C   0  0  0  0  0  0  0  0  0  0  0  0
    5.3496    3.3136    3.5871 C   0  0  3  0  0  0  0  0  0  0  0  0
    5.6583    4.6136    2.8391 C   0  0  0  0  0  0  0  0  0  0  0  0
    4.6102    3.6606    4.8890 C   0  0  0  0  0  0  0  0  0  0  0  0
    3.3807    3.7998    4.9225 O   0  0  0  0  0  0  0  0  0  0  0  0
    5.3357    3.9832    6.1562 C   0  0  0  0  0  0  0  0  0  0  0  0
    4.7056    4.9082    7.0107 C   0  0  0  0  0  0  0  0  0  0  0  0
    5.2161    5.1992    8.2797 C   0  0  0  0  0  0  0  0  0  0  0  0
    6.3726    4.5661    8.7208 C   0  0  0  0  0  0  0  0  0  0  0  0
    6.9505    4.7222    9.9512 O   0  0  0  0  0  0  0  0  0  0  0  0
    6.2486    5.5312   10.8920 C   0  0  0  0  0  0  0  0  0  0  0  0
    7.0281    3.6713    7.8681 C   0  0  0  0  0  0  0  0  0  0  0  0
    6.5130    3.3754    6.5962 C   0  0  0  0  0  0  0  0  0  0  0  0
    7.1603    2.4482    5.8321 O   0  0  0  0  0  0  0  0  0  0  0  0
    3.2995    2.6904    2.1804 C   0  0  0  0  0  0  0  0  0  0  0  0
    2.5660    1.7752    1.4208 C   0  0  0  0  0  0  0  0  0  0  0  0
    1.9240   -2.1190   -0.4492 H   0  0  0  0  0  0  0  0  0  0  0  0
    2.7785   -2.1918    1.0978 H   0  0  0  0  0  0  0  0  0  0  0  0
    3.6210   -1.6316   -0.3993 H   0  0  0  0  0  0  0  0  0  0  0  0
    4.7685   -0.8143    1.4544 H   0  0  0  0  0  0  0  0  0  0  0  0
    6.0417    0.7753    2.7869 H   0  0  0  0  0  0  0  0  0  0  0  0
    6.3040    2.8344    3.8017 H   0  0  0  0  0  0  0  0  0  0  0  0
    4.7798    5.2651    2.7729 H   0  0  0  0  0  0  0  0  0  0  0  0
    6.0106    4.4164    1.8205 H   0  0  0  0  0  0  0  0  0  0  0  0
    6.4394    5.1775    3.3616 H   0  0  0  0  0  0  0  0  0  0  0  0
    3.7817    5.3949    6.6978 H   0  0  0  0  0  0  0  0  0  0  0  0
    4.6718    5.9077    8.8978 H   0  0  0  0  0  0  0  0  0  0  0  0
    6.8103    5.5177   11.8310 H   0  0  0  0  0  0  0  0  0  0  0  0
    5.2500    5.1300   11.0963 H   0  0  0  0  0  0  0  0  0  0  0  0
    6.1960    6.5692   10.5500 H   0  0  0  0  0  0  0  0  0  0  0  0
    7.9322    3.1865    8.2280 H   0  0  0  0  0  0  0  0  0  0  0  0
    7.9235    2.1007    6.3256 H   0  0  0  0  0  0  0  0  0  0  0  0
    2.8621    3.6658    2.3861 H   0  0  0  0  0  0  0  0  0  0  0  0
    1.5839    2.0556    1.0476 H   0  0  0  0  0  0  0  0  0  0  0  0
  1  2  1  0  0  0  0
  1 22  1  0  0  0  0
  1 23  1  0  0  0  0
  1 24  1  0  0  0  0
  2  3  1  0  0  0  0
  3  4  1  0  0  0  0
  3 21  2  0  0  0  0
  4  5  2  0  0  0  0
  4 25  1  0  0  0  0
  5  6  1  0  0  0  0
  5 26  1  0  0  0  0
  6  7  1  0  0  0  0
  6 20  2  0  0  0  0
  7  8  1  0  0  0  0
  7  9  1  0  0  0  0
  7 27  1  0  0  0  0
  8 28  1  0  0  0  0
  8 29  1  0  0  0  0
  8 30  1  0  0  0  0
  9 10  2  0  0  0  0
  9 11  1  0  0  0  0
 11 12  1  0  0  0  0
 11 18  2  0  0  0  0
 12 13  2  0  0  0  0
 12 31  1  0  0  0  0
 13 14  1  0  0  0  0
 13 32  1  0  0  0  0
 14 15  1  0  0  0  0
 14 17  2  0  0  0  0
 15 16  1  0  0  0  0
 16 33  1  0  0  0  0
 16 34  1  0  0  0  0
 16 35  1  0  0  0  0
 17 18  1  0  0  0  0
 17 36  1  0  0  0  0
 18 19  1  0  0  0  0
 19 37  1  0  0  0  0
 20 21  1  0  0  0  0
 20 38  1  0  0  0  0
 21 39  1  0  0  0  0
M  END
>  <Line_Number>
49


> <IC50>
2178000

$$$$
