49844556.0
 OpenBabel09092522103D

 45 45  0  0  0  0  0  0  0  0999 V2000
    0.9198   -0.0974   -0.0274 C   0  0  0  0  0  0  0  0  0  0  0  0
    2.4383   -0.0914   -0.0393 C   0  0  0  0  0  0  0  0  0  0  0  0
    2.9719    0.3602   -1.3951 C   0  0  0  0  0  0  0  0  0  0  0  0
    4.4966    0.3667   -1.4086 C   0  0  0  0  0  0  0  0  0  0  0  0
    5.0218    0.8209   -2.7660 C   0  0  0  0  0  0  0  0  0  0  0  0
    6.5452    0.8266   -2.7767 C   0  0  0  0  0  0  0  0  0  0  0  0
    7.0730    1.2801   -4.1314 C   0  0  0  0  0  0  0  0  0  0  0  0
    8.5975    1.2838   -4.1370 C   0  0  0  0  0  0  0  0  0  0  0  0
    9.1227    1.7374   -5.4919 C   0  0  0  0  0  0  0  0  0  0  0  0
   10.6498    1.7443   -5.5145 C   0  0  0  0  0  0  0  0  0  0  0  0
   11.1415    2.1975   -6.8636 C   0  0  0  0  0  0  0  0  0  0  0  0
   11.3652    3.5658   -7.1003 C   0  0  0  0  0  0  0  0  0  0  0  0
   11.7343    4.0247   -8.3710 C   0  0  0  0  0  0  0  0  0  0  0  0
   11.8802    3.1108   -9.4058 C   0  0  0  0  0  0  0  0  0  0  0  0
   12.2192    3.5007  -10.6722 O   0  0  0  0  0  0  0  0  0  0  0  0
   11.6690    1.7563   -9.1801 C   0  0  0  0  0  0  0  0  0  0  0  0
   11.8028    0.8508  -10.2000 O   0  0  0  0  0  0  0  0  0  0  0  0
   11.3017    1.3001   -7.9214 C   0  0  0  0  0  0  0  0  0  0  0  0
   11.0700   -0.0362   -7.7397 O   0  0  0  0  0  0  0  0  0  0  0  0
    0.5496   -0.4224    0.9492 H   0  0  0  0  0  0  0  0  0  0  0  0
    0.5267   -0.7802   -0.7874 H   0  0  0  0  0  0  0  0  0  0  0  0
    0.5245    0.9036   -0.2277 H   0  0  0  0  0  0  0  0  0  0  0  0
    2.8078   -1.0975    0.1906 H   0  0  0  0  0  0  0  0  0  0  0  0
    2.8055    0.5776    0.7476 H   0  0  0  0  0  0  0  0  0  0  0  0
    2.5981    1.3658   -1.6238 H   0  0  0  0  0  0  0  0  0  0  0  0
    2.6004   -0.3090   -2.1809 H   0  0  0  0  0  0  0  0  0  0  0  0
    4.8743   -0.6384   -1.1847 H   0  0  0  0  0  0  0  0  0  0  0  0
    4.8723    1.0360   -0.6251 H   0  0  0  0  0  0  0  0  0  0  0  0
    4.6464    1.8266   -2.9920 H   0  0  0  0  0  0  0  0  0  0  0  0
    4.6487    0.1522   -3.5514 H   0  0  0  0  0  0  0  0  0  0  0  0
    6.9212   -0.1789   -2.5516 H   0  0  0  0  0  0  0  0  0  0  0  0
    6.9188    1.4958   -1.9921 H   0  0  0  0  0  0  0  0  0  0  0  0
    6.6983    2.2860   -4.3577 H   0  0  0  0  0  0  0  0  0  0  0  0
    6.7001    0.6121   -4.9176 H   0  0  0  0  0  0  0  0  0  0  0  0
    8.9712    0.2777   -3.9118 H   0  0  0  0  0  0  0  0  0  0  0  0
    8.9692    1.9531   -3.3519 H   0  0  0  0  0  0  0  0  0  0  0  0
    8.7394    2.7413   -5.7161 H   0  0  0  0  0  0  0  0  0  0  0  0
    8.7369    1.0725   -6.2751 H   0  0  0  0  0  0  0  0  0  0  0  0
   11.0440    0.7484   -5.2785 H   0  0  0  0  0  0  0  0  0  0  0  0
   11.0382    2.4134   -4.7368 H   0  0  0  0  0  0  0  0  0  0  0  0
   11.2324    4.2842   -6.2940 H   0  0  0  0  0  0  0  0  0  0  0  0
   11.8888    5.0889   -8.5251 H   0  0  0  0  0  0  0  0  0  0  0  0
   12.2912    4.4708  -10.6775 H   0  0  0  0  0  0  0  0  0  0  0  0
   12.0522    1.3989  -10.9712 H   0  0  0  0  0  0  0  0  0  0  0  0
   11.2410   -0.4331   -8.6176 H   0  0  0  0  0  0  0  0  0  0  0  0
  1  2  1  0  0  0  0
  1 20  1  0  0  0  0
  1 21  1  0  0  0  0
  1 22  1  0  0  0  0
  2  3  1  0  0  0  0
  2 23  1  0  0  0  0
  2 24  1  0  0  0  0
  3  4  1  0  0  0  0
  3 25  1  0  0  0  0
  3 26  1  0  0  0  0
  4  5  1  0  0  0  0
  4 27  1  0  0  0  0
  4 28  1  0  0  0  0
  5  6  1  0  0  0  0
  5 29  1  0  0  0  0
  5 30  1  0  0  0  0
  6  7  1  0  0  0  0
  6 31  1  0  0  0  0
  6 32  1  0  0  0  0
  7  8  1  0  0  0  0
  7 33  1  0  0  0  0
  7 34  1  0  0  0  0
  8  9  1  0  0  0  0
  8 35  1  0  0  0  0
  8 36  1  0  0  0  0
  9 10  1  0  0  0  0
  9 37  1  0  0  0  0
  9 38  1  0  0  0  0
 10 11  1  0  0  0  0
 10 39  1  0  0  0  0
 10 40  1  0  0  0  0
 11 12  1  0  0  0  0
 11 18  2  0  0  0  0
 12 13  2  0  0  0  0
 12 41  1  0  0  0  0
 13 14  1  0  0  0  0
 13 42  1  0  0  0  0
 14 15  1  0  0  0  0
 14 16  2  0  0  0  0
 15 43  1  0  0  0  0
 16 17  1  0  0  0  0
 16 18  1  0  0  0  0
 17 44  1  0  0  0  0
 18 19  1  0  0  0  0
 19 45  1  0  0  0  0
M  END
>  <Line_Number>
4


> <IC50>
124000

$$$$
