68077.0
 OpenBabel09092522103D

 47 49  0  0  0  0  0  0  0  0999 V2000
    2.7726    1.6279   -1.5591 C   0  0  0  0  0  0  0  0  0  0  0  0
    2.6490    0.4298   -0.7970 O   0  0  0  0  0  0  0  0  0  0  0  0
    3.2299   -0.6683   -1.3697 C   0  0  0  0  0  0  0  0  0  0  0  0
    4.3893   -0.6400   -2.1420 C   0  0  0  0  0  0  0  0  0  0  0  0
    4.8795   -1.8185   -2.7168 C   0  0  0  0  0  0  0  0  0  0  0  0
    4.2284   -3.0439   -2.5187 C   0  0  0  0  0  0  0  0  0  0  0  0
    4.7253   -4.2611   -3.1852 C   0  0  0  0  0  0  0  0  0  0  0  0
    4.6846   -5.4615   -2.5978 C   0  0  0  0  0  0  0  0  0  0  0  0
    5.1611   -6.6187   -3.3648 C   0  0  0  0  0  0  0  0  0  0  0  0
    4.7784   -7.7352   -3.0405 O   0  0  0  0  0  0  0  0  0  0  0  0
    6.0497   -6.3425   -4.5171 C   0  0  0  0  0  0  0  0  0  0  0  0
    6.9070   -7.2968   -5.1084 C   0  0  0  0  0  0  0  0  0  0  0  0
    7.0399   -8.5820   -4.6470 O   0  0  0  0  0  0  0  0  0  0  0  0
    7.3396   -8.7749   -3.2651 C   0  0  0  0  0  0  0  0  0  0  0  0
    7.5691   -6.9701   -6.3227 C   0  0  0  0  0  0  0  0  0  0  0  0
    8.4039   -7.7962   -7.0334 O   0  0  0  0  0  0  0  0  0  0  0  0
    8.8600   -9.0276   -6.5020 C   0  0  0  0  0  0  0  0  0  0  0  0
    7.3386   -5.7104   -6.9392 C   0  0  0  0  0  0  0  0  0  0  0  0
    7.8358   -5.3492   -8.1703 O   0  0  0  0  0  0  0  0  0  0  0  0
    9.1827   -5.6763   -8.4817 C   0  0  0  0  0  0  0  0  0  0  0  0
    6.4818   -4.7751   -6.3299 C   0  0  0  0  0  0  0  0  0  0  0  0
    6.1746   -3.5332   -6.8405 O   0  0  0  0  0  0  0  0  0  0  0  0
    5.9362   -3.4694   -8.2464 C   0  0  0  0  0  0  0  0  0  0  0  0
    5.9122   -5.0713   -5.0846 C   0  0  0  0  0  0  0  0  0  0  0  0
    5.1917   -4.0635   -4.4726 O   0  0  0  0  0  0  0  0  0  0  0  0
    3.0861   -3.0625   -1.6964 C   0  0  0  0  0  0  0  0  0  0  0  0
    2.6023   -1.8866   -1.1190 C   0  0  0  0  0  0  0  0  0  0  0  0
    2.0944    2.3712   -1.1294 H   0  0  0  0  0  0  0  0  0  0  0  0
    2.4776    1.4703   -2.6031 H   0  0  0  0  0  0  0  0  0  0  0  0
    3.7883    2.0299   -1.4960 H   0  0  0  0  0  0  0  0  0  0  0  0
    4.9345    0.2824   -2.3115 H   0  0  0  0  0  0  0  0  0  0  0  0
    5.7809   -1.7679   -3.3240 H   0  0  0  0  0  0  0  0  0  0  0  0
    4.2856   -5.6478   -1.6102 H   0  0  0  0  0  0  0  0  0  0  0  0
    8.1595   -9.4967   -3.1944 H   0  0  0  0  0  0  0  0  0  0  0  0
    6.4851   -9.2428   -2.7688 H   0  0  0  0  0  0  0  0  0  0  0  0
    7.6437   -7.8618   -2.7440 H   0  0  0  0  0  0  0  0  0  0  0  0
    9.6153   -9.4193   -7.1915 H   0  0  0  0  0  0  0  0  0  0  0  0
    8.0494   -9.7602   -6.4690 H   0  0  0  0  0  0  0  0  0  0  0  0
    9.3499   -8.8984   -5.5320 H   0  0  0  0  0  0  0  0  0  0  0  0
    9.5123   -4.9827   -9.2626 H   0  0  0  0  0  0  0  0  0  0  0  0
    9.2503   -6.6793   -8.9118 H   0  0  0  0  0  0  0  0  0  0  0  0
    9.8496   -5.5546   -7.6228 H   0  0  0  0  0  0  0  0  0  0  0  0
    5.2051   -2.6757   -8.4301 H   0  0  0  0  0  0  0  0  0  0  0  0
    5.5185   -4.3964   -8.6565 H   0  0  0  0  0  0  0  0  0  0  0  0
    6.8571   -3.1865   -8.7658 H   0  0  0  0  0  0  0  0  0  0  0  0
    2.5477   -3.9887   -1.5109 H   0  0  0  0  0  0  0  0  0  0  0  0
    1.7116   -1.9183   -0.4965 H   0  0  0  0  0  0  0  0  0  0  0  0
  1  2  1  0  0  0  0
  1 28  1  0  0  0  0
  1 29  1  0  0  0  0
  1 30  1  0  0  0  0
  2  3  1  0  0  0  0
  3  4  1  0  0  0  0
  3 27  2  0  0  0  0
  4  5  2  0  0  0  0
  4 31  1  0  0  0  0
  5  6  1  0  0  0  0
  5 32  1  0  0  0  0
  6  7  1  0  0  0  0
  6 26  2  0  0  0  0
  7  8  2  0  0  0  0
  7 25  1  0  0  0  0
  8  9  1  0  0  0  0
  8 33  1  0  0  0  0
  9 10  2  0  0  0  0
  9 11  1  0  0  0  0
 11 12  1  0  0  0  0
 11 24  2  0  0  0  0
 12 13  1  0  0  0  0
 12 15  2  0  0  0  0
 13 14  1  0  0  0  0
 14 34  1  0  0  0  0
 14 35  1  0  0  0  0
 14 36  1  0  0  0  0
 15 16  1  0  0  0  0
 15 18  1  0  0  0  0
 16 17  1  0  0  0  0
 17 37  1  0  0  0  0
 17 38  1  0  0  0  0
 17 39  1  0  0  0  0
 18 19  1  0  0  0  0
 18 21  2  0  0  0  0
 19 20  1  0  0  0  0
 20 40  1  0  0  0  0
 20 41  1  0  0  0  0
 20 42  1  0  0  0  0
 21 22  1  0  0  0  0
 21 24  1  0  0  0  0
 22 23  1  0  0  0  0
 23 43  1  0  0  0  0
 23 44  1  0  0  0  0
 23 45  1  0  0  0  0
 24 25  1  0  0  0  0
 26 27  1  0  0  0  0
 26 46  1  0  0  0  0
 27 47  1  0  0  0  0
M  END
>  <Line_Number>
53


> <IC50>
4628000

$$$$
