15533938.0
 OpenBabel09092522103D

 39 41  0  0  1  0  0  0  0  0999 V2000
    1.7234    0.2429    0.1551 C   0  0  0  0  0  0  0  0  0  0  0  0
    3.0814    0.1717    0.6142 O   0  0  0  0  0  0  0  0  0  0  0  0
    3.5401   -1.0802    0.9430 C   0  0  0  0  0  0  0  0  0  0  0  0
    2.7318   -2.1640    1.0910 C   0  0  0  0  0  0  0  0  0  0  0  0
    3.2750   -3.4143    1.3669 C   0  0  0  0  0  0  0  0  0  0  0  0
    4.6771   -3.7064    1.4698 C   0  0  0  0  0  0  0  0  0  0  0  0
    5.1429   -5.2100    1.6495 C   0  0  3  0  0  0  0  0  0  0  0  0
    6.2972   -6.0661    0.8556 C   0  0  0  0  0  0  0  0  0  0  0  0
    5.8822   -7.3815    0.2190 O   0  0  0  0  0  0  0  0  0  0  0  0
    4.7670   -7.2071   -0.6128 C   0  0  0  0  0  0  0  0  0  0  0  0
    4.8937   -7.5550   -1.9601 C   0  0  0  0  0  0  0  0  0  0  0  0
    4.7117   -6.5513   -2.9035 C   0  0  0  0  0  0  0  0  0  0  0  0
    4.9970   -6.6070   -4.2376 O   0  0  0  0  0  0  0  0  0  0  0  0
    5.2493   -7.8964   -4.7730 C   0  0  0  0  0  0  0  0  0  0  0  0
    4.3248   -5.3004   -2.4459 C   0  0  0  0  0  0  0  0  0  0  0  0
    3.8823   -5.1415   -1.1238 C   0  0  0  0  0  0  0  0  0  0  0  0
    3.9619   -6.1857   -0.1776 C   0  0  0  0  0  0  0  0  0  0  0  0
    3.9225   -6.0848    1.3638 C   0  0  3  0  0  0  0  0  0  0  0  0
    4.0415   -7.3213    2.1203 O   0  0  0  0  0  0  0  0  0  0  0  0
    5.4814   -2.5565    1.4278 C   0  0  0  0  0  0  0  0  0  0  0  0
    4.9111   -1.2715    1.1769 C   0  0  0  0  0  0  0  0  0  0  0  0
    1.5190    1.2611   -0.1934 H   0  0  0  0  0  0  0  0  0  0  0  0
    1.0188    0.0144    0.9687 H   0  0  0  0  0  0  0  0  0  0  0  0
    1.5602   -0.4366   -0.6945 H   0  0  0  0  0  0  0  0  0  0  0  0
    1.6492   -2.1387    0.9088 H   0  0  0  0  0  0  0  0  0  0  0  0
    2.4923   -4.1608    1.3250 H   0  0  0  0  0  0  0  0  0  0  0  0
    5.4561   -5.2546    2.7015 H   0  0  0  0  0  0  0  0  0  0  0  0
    7.0272   -6.4112    1.5977 H   0  0  0  0  0  0  0  0  0  0  0  0
    6.8340   -5.4961    0.0918 H   0  0  0  0  0  0  0  0  0  0  0  0
    5.2706   -8.5368   -2.2116 H   0  0  0  0  0  0  0  0  0  0  0  0
    5.5370   -7.7690   -5.8206 H   0  0  0  0  0  0  0  0  0  0  0  0
    4.3367   -8.4986   -4.7306 H   0  0  0  0  0  0  0  0  0  0  0  0
    6.0795   -8.3937   -4.2603 H   0  0  0  0  0  0  0  0  0  0  0  0
    4.4336   -4.4305   -3.0894 H   0  0  0  0  0  0  0  0  0  0  0  0
    3.6759   -4.1128   -0.8631 H   0  0  0  0  0  0  0  0  0  0  0  0
    2.9647   -5.7533    1.7454 H   0  0  0  0  0  0  0  0  0  0  0  0
    4.1378   -7.0648    3.0547 H   0  0  0  0  0  0  0  0  0  0  0  0
    6.5601   -2.6389    1.5956 H   0  0  0  0  0  0  0  0  0  0  0  0
    5.5614   -0.4057    1.1807 H   0  0  0  0  0  0  0  0  0  0  0  0
  1  2  1  0  0  0  0
  1 22  1  0  0  0  0
  1 23  1  0  0  0  0
  1 24  1  0  0  0  0
  2  3  1  0  0  0  0
  3  4  1  0  0  0  0
  3 21  2  0  0  0  0
  4  5  2  0  0  0  0
  4 25  1  0  0  0  0
  5  6  1  0  0  0  0
  5 26  1  0  0  0  0
  6  7  1  0  0  0  0
  6 20  2  0  0  0  0
  7  8  1  0  0  0  0
  7 18  1  0  0  0  0
  7 27  1  0  0  0  0
  8  9  1  0  0  0  0
  8 28  1  0  0  0  0
  8 29  1  0  0  0  0
  9 10  1  0  0  0  0
 10 11  1  0  0  0  0
 10 17  2  0  0  0  0
 11 12  2  0  0  0  0
 11 30  1  0  0  0  0
 12 13  1  0  0  0  0
 12 15  1  0  0  0  0
 13 14  1  0  0  0  0
 14 31  1  0  0  0  0
 14 32  1  0  0  0  0
 14 33  1  0  0  0  0
 15 16  2  0  0  0  0
 15 34  1  0  0  0  0
 16 17  1  0  0  0  0
 16 35  1  0  0  0  0
 17 18  1  0  0  0  0
 18 19  1  0  0  0  0
 18 36  1  0  0  0  0
 19 37  1  0  0  0  0
 20 21  1  0  0  0  0
 20 38  1  0  0  0  0
 21 39  1  0  0  0  0
M  END
>  <Line_Number>
54


> <IC50>
3867000

$$$$
