66548537.0
 OpenBabel09092522103D

 51 53  0  0  1  0  0  0  0  0999 V2000
    2.5299    1.0841   -0.2986 C   0  0  0  0  0  0  0  0  0  0  0  0
    2.1287   -0.1527    0.2721 O   0  0  0  0  0  0  0  0  0  0  0  0
    2.9177   -0.6557    1.2692 C   0  0  0  0  0  0  0  0  0  0  0  0
    4.0754   -0.0694    1.7795 C   0  0  0  0  0  0  0  0  0  0  0  0
    4.7973   -0.6949    2.7925 C   0  0  0  0  0  0  0  0  0  0  0  0
    4.3744   -1.9274    3.3166 C   0  0  0  0  0  0  0  0  0  0  0  0
    5.1714   -2.5805    4.4274 C   0  0  3  0  0  0  0  0  0  0  0  0
    4.6883   -2.1121    5.7823 C   0  0  0  0  0  0  0  0  0  0  0  0
    5.6910   -2.6237    6.8034 C   0  0  3  0  0  0  0  0  0  0  0  0
    5.1363   -2.3205    8.0801 O   0  0  0  0  0  0  0  0  0  0  0  0
    6.0241   -4.0926    6.6147 C   0  0  0  0  0  0  0  0  0  0  0  0
    6.6767   -4.8966    7.5845 C   0  0  0  0  0  0  0  0  0  0  0  0
    7.0224   -4.4488    8.8332 O   0  0  0  0  0  0  0  0  0  0  0  0
    7.6516   -3.1910    9.0494 C   0  0  0  0  0  0  0  0  0  0  0  0
    6.8218   -6.3002    7.3619 C   0  0  0  0  0  0  0  0  0  0  0  0
    7.3793   -7.2028    8.2348 O   0  0  0  0  0  0  0  0  0  0  0  0
    7.9945   -6.8012    9.4432 C   0  0  0  0  0  0  0  0  0  0  0  0
    6.3107   -6.8977    6.1805 C   0  0  0  0  0  0  0  0  0  0  0  0
    6.2827   -8.2502    5.9392 O   0  0  0  0  0  0  0  0  0  0  0  0
    7.4193   -9.0313    6.2735 C   0  0  0  0  0  0  0  0  0  0  0  0
    5.6817   -6.0943    5.2175 C   0  0  0  0  0  0  0  0  0  0  0  0
    5.1545   -6.5487    4.0275 O   0  0  0  0  0  0  0  0  0  0  0  0
    4.4286   -7.7735    4.0711 C   0  0  0  0  0  0  0  0  0  0  0  0
    5.6109   -4.7023    5.4064 C   0  0  0  0  0  0  0  0  0  0  0  0
    5.0397   -4.0010    4.3654 O   0  0  0  0  0  0  0  0  0  0  0  0
    3.2029   -2.5046    2.8128 C   0  0  0  0  0  0  0  0  0  0  0  0
    2.4843   -1.8735    1.7960 C   0  0  0  0  0  0  0  0  0  0  0  0
    1.8054    1.3437   -1.0797 H   0  0  0  0  0  0  0  0  0  0  0  0
    3.5125    1.0015   -0.7752 H   0  0  0  0  0  0  0  0  0  0  0  0
    2.5161    1.8856    0.4453 H   0  0  0  0  0  0  0  0  0  0  0  0
    4.4470    0.8818    1.3968 H   0  0  0  0  0  0  0  0  0  0  0  0
    5.6989   -0.2176    3.1701 H   0  0  0  0  0  0  0  0  0  0  0  0
    6.2307   -2.3339    4.2655 H   0  0  0  0  0  0  0  0  0  0  0  0
    3.6895   -2.5142    6.0061 H   0  0  0  0  0  0  0  0  0  0  0  0
    4.6053   -1.0205    5.8503 H   0  0  0  0  0  0  0  0  0  0  0  0
    6.6092   -2.0387    6.6760 H   0  0  0  0  0  0  0  0  0  0  0  0
    4.9461   -3.1630    8.5304 H   0  0  0  0  0  0  0  0  0  0  0  0
    8.5770   -3.3546    9.6102 H   0  0  0  0  0  0  0  0  0  0  0  0
    6.9995   -2.5906    9.6926 H   0  0  0  0  0  0  0  0  0  0  0  0
    7.9160   -2.6436    8.1453 H   0  0  0  0  0  0  0  0  0  0  0  0
    8.4348   -7.6954    9.8964 H   0  0  0  0  0  0  0  0  0  0  0  0
    7.2521   -6.4216   10.1504 H   0  0  0  0  0  0  0  0  0  0  0  0
    8.8118   -6.0945    9.2701 H   0  0  0  0  0  0  0  0  0  0  0  0
    7.3739   -9.9458    5.6701 H   0  0  0  0  0  0  0  0  0  0  0  0
    7.3778   -9.3541    7.3181 H   0  0  0  0  0  0  0  0  0  0  0  0
    8.3592   -8.5223    6.0404 H   0  0  0  0  0  0  0  0  0  0  0  0
    3.6536   -7.7341    3.2986 H   0  0  0  0  0  0  0  0  0  0  0  0
    3.9239   -7.9413    5.0292 H   0  0  0  0  0  0  0  0  0  0  0  0
    5.0922   -8.6065    3.8196 H   0  0  0  0  0  0  0  0  0  0  0  0
    2.8450   -3.4563    3.2010 H   0  0  0  0  0  0  0  0  0  0  0  0
    1.5834   -2.3391    1.4064 H   0  0  0  0  0  0  0  0  0  0  0  0
  1  2  1  0  0  0  0
  1 28  1  0  0  0  0
  1 29  1  0  0  0  0
  1 30  1  0  0  0  0
  2  3  1  0  0  0  0
  3  4  1  0  0  0  0
  3 27  2  0  0  0  0
  4  5  2  0  0  0  0
  4 31  1  0  0  0  0
  5  6  1  0  0  0  0
  5 32  1  0  0  0  0
  6  7  1  0  0  0  0
  6 26  2  0  0  0  0
  7  8  1  0  0  0  0
  7 25  1  0  0  0  0
  7 33  1  0  0  0  0
  8  9  1  0  0  0  0
  8 34  1  0  0  0  0
  8 35  1  0  0  0  0
  9 10  1  0  0  0  0
  9 11  1  0  0  0  0
  9 36  1  0  0  0  0
 10 37  1  0  0  0  0
 11 12  1  0  0  0  0
 11 24  2  0  0  0  0
 12 13  1  0  0  0  0
 12 15  2  0  0  0  0
 13 14  1  0  0  0  0
 14 38  1  0  0  0  0
 14 39  1  0  0  0  0
 14 40  1  0  0  0  0
 15 16  1  0  0  0  0
 15 18  1  0  0  0  0
 16 17  1  0  0  0  0
 17 41  1  0  0  0  0
 17 42  1  0  0  0  0
 17 43  1  0  0  0  0
 18 19  1  0  0  0  0
 18 21  2  0  0  0  0
 19 20  1  0  0  0  0
 20 44  1  0  0  0  0
 20 45  1  0  0  0  0
 20 46  1  0  0  0  0
 21 22  1  0  0  0  0
 21 24  1  0  0  0  0
 22 23  1  0  0  0  0
 23 47  1  0  0  0  0
 23 48  1  0  0  0  0
 23 49  1  0  0  0  0
 24 25  1  0  0  0  0
 26 27  1  0  0  0  0
 26 50  1  0  0  0  0
 27 51  1  0  0  0  0
M  END
>  <Line_Number>
55


> <IC50>
4853000

$$$$
