5281708.0
 OpenBabel09092522103D

 29 31  0  0  0  0  0  0  0  0999 V2000
   -2.3291    1.8639    0.0172 O   0  0  0  0  0  0  0  0  0  0  0  0
   -1.8613    0.7317    0.0155 C   0  0  0  0  0  0  0  0  0  0  0  0
   -2.7111   -0.4873   -0.0028 C   0  0  0  0  0  0  0  0  0  0  0  0
   -4.1751   -0.4079   -0.0407 C   0  0  0  0  0  0  0  0  0  0  0  0
   -4.9194   -0.3852    1.1468 C   0  0  0  0  0  0  0  0  0  0  0  0
   -6.3157   -0.3161    1.1034 C   0  0  0  0  0  0  0  0  0  0  0  0
   -6.9611   -0.2725   -0.1288 C   0  0  0  0  0  0  0  0  0  0  0  0
   -8.3193   -0.1988   -0.2178 O   0  0  0  0  0  0  0  0  0  0  0  0
   -6.2364   -0.2999   -1.3144 C   0  0  0  0  0  0  0  0  0  0  0  0
   -4.8425   -0.3668   -1.2719 C   0  0  0  0  0  0  0  0  0  0  0  0
   -2.0964   -1.6782   -0.0063 C   0  0  0  0  0  0  0  0  0  0  0  0
   -0.7392   -1.8973   -0.0011 O   0  0  0  0  0  0  0  0  0  0  0  0
    0.0835   -0.7976    0.0058 C   0  0  0  0  0  0  0  0  0  0  0  0
    1.4596   -1.0340   -0.0098 C   0  0  0  0  0  0  0  0  0  0  0  0
    2.3341    0.0494    0.0037 C   0  0  0  0  0  0  0  0  0  0  0  0
    3.6856   -0.1282   -0.0199 O   0  0  0  0  0  0  0  0  0  0  0  0
    1.8574    1.3570    0.0398 C   0  0  0  0  0  0  0  0  0  0  0  0
    0.4818    1.5919    0.0492 C   0  0  0  0  0  0  0  0  0  0  0  0
   -0.4037    0.5094    0.0265 C   0  0  0  0  0  0  0  0  0  0  0  0
   -4.4181   -0.4106    2.1112 H   0  0  0  0  0  0  0  0  0  0  0  0
   -6.8752   -0.2926    2.0330 H   0  0  0  0  0  0  0  0  0  0  0  0
   -8.6850   -0.1147    0.6779 H   0  0  0  0  0  0  0  0  0  0  0  0
   -6.7533   -0.2598   -2.2684 H   0  0  0  0  0  0  0  0  0  0  0  0
   -4.2837   -0.3745   -2.2048 H   0  0  0  0  0  0  0  0  0  0  0  0
   -2.6211   -2.6263   -0.0221 H   0  0  0  0  0  0  0  0  0  0  0  0
    1.8272   -2.0548   -0.0329 H   0  0  0  0  0  0  0  0  0  0  0  0
    3.8811   -1.0776   -0.0840 H   0  0  0  0  0  0  0  0  0  0  0  0
    2.5543    2.1906    0.0553 H   0  0  0  0  0  0  0  0  0  0  0  0
    0.1050    2.6121    0.0712 H   0  0  0  0  0  0  0  0  0  0  0  0
  1  2  2  0  0  0  0
  2  3  1  0  0  0  0
  2 19  1  0  0  0  0
  3  4  1  0  0  0  0
  3 11  2  0  0  0  0
  4  5  1  0  0  0  0
  4 10  2  0  0  0  0
  5  6  2  0  0  0  0
  5 20  1  0  0  0  0
  6  7  1  0  0  0  0
  6 21  1  0  0  0  0
  7  8  1  0  0  0  0
  7  9  2  0  0  0  0
  8 22  1  0  0  0  0
  9 10  1  0  0  0  0
  9 23  1  0  0  0  0
 10 24  1  0  0  0  0
 11 12  1  0  0  0  0
 11 25  1  0  0  0  0
 12 13  1  0  0  0  0
 13 14  1  0  0  0  0
 13 19  2  0  0  0  0
 14 15  2  0  0  0  0
 14 26  1  0  0  0  0
 15 16  1  0  0  0  0
 15 17  1  0  0  0  0
 16 27  1  0  0  0  0
 17 18  2  0  0  0  0
 17 28  1  0  0  0  0
 18 19  1  0  0  0  0
 18 29  1  0  0  0  0
M  END
>  <Line_Number>
57


> <IC50>
556000

$$$$
