72707600.0
 OpenBabel09092522103D

 24 24  0  0  1  0  0  0  0  0999 V2000
    2.3822   -0.0188    1.2636 O   0  0  0  0  0  0  0  0  0  0  0  0
    2.0499    0.0344    0.0776 C   0  0  0  0  0  0  0  0  0  0  0  0
    2.8378   -0.6505   -1.0203 C   0  0  0  0  0  0  0  0  0  0  0  0
    1.9326   -1.3302   -2.0518 C   0  0  3  0  0  0  0  0  0  0  0  0
    1.1522   -0.3358   -2.7313 O   0  0  0  0  0  0  0  0  0  0  0  0
    2.7007   -2.1358   -3.0743 C   0  0  0  0  0  0  0  0  0  0  0  0
    2.4868   -3.5153   -3.2110 C   0  0  0  0  0  0  0  0  0  0  0  0
    3.1920   -4.2524   -4.1685 C   0  0  0  0  0  0  0  0  0  0  0  0
    4.1189   -3.6238   -5.0003 C   0  0  0  0  0  0  0  0  0  0  0  0
    4.3362   -2.2543   -4.8813 C   0  0  0  0  0  0  0  0  0  0  0  0
    3.6279   -1.5281   -3.9291 C   0  0  0  0  0  0  0  0  0  0  0  0
    3.8178   -0.2020   -3.8585 F   0  0  0  0  0  0  0  0  0  0  0  0
    0.9884    0.7931   -0.3416 N   0  0  0  0  0  0  0  0  0  0  0  0
    0.1873    1.3646    0.6726 O   0  0  0  0  0  0  0  0  0  0  0  0
    3.4820   -1.3995   -0.5460 H   0  0  0  0  0  0  0  0  0  0  0  0
    3.4796    0.1114   -1.4756 H   0  0  0  0  0  0  0  0  0  0  0  0
    1.2166   -1.9772   -1.5294 H   0  0  0  0  0  0  0  0  0  0  0  0
    1.7273    0.0777   -3.4043 H   0  0  0  0  0  0  0  0  0  0  0  0
    1.7624   -4.0293   -2.5818 H   0  0  0  0  0  0  0  0  0  0  0  0
    3.0142   -5.3211   -4.2699 H   0  0  0  0  0  0  0  0  0  0  0  0
    4.6638   -4.1987   -5.7446 H   0  0  0  0  0  0  0  0  0  0  0  0
    5.0426   -1.7450   -5.5288 H   0  0  0  0  0  0  0  0  0  0  0  0
    0.5439    0.6319   -1.2476 H   0  0  0  0  0  0  0  0  0  0  0  0
    0.6583    1.0941    1.4897 H   0  0  0  0  0  0  0  0  0  0  0  0
  1  2  2  0  0  0  0
  2  3  1  0  0  0  0
  2 13  1  0  0  0  0
  3  4  1  0  0  0  0
  3 15  1  0  0  0  0
  3 16  1  0  0  0  0
  4  5  1  0  0  0  0
  4  6  1  0  0  0  0
  4 17  1  0  0  0  0
  5 18  1  0  0  0  0
  6  7  1  0  0  0  0
  6 11  2  0  0  0  0
  7  8  2  0  0  0  0
  7 19  1  0  0  0  0
  8  9  1  0  0  0  0
  8 20  1  0  0  0  0
  9 10  2  0  0  0  0
  9 21  1  0  0  0  0
 10 11  1  0  0  0  0
 10 22  1  0  0  0  0
 11 12  1  0  0  0  0
 13 14  1  0  0  0  0
 13 23  1  0  0  0  0
 14 24  1  0  0  0  0
M  END
>  <Line_Number>
58


> <IC50>
5600

$$$$
