72707672.0
 OpenBabel09092522103D

 24 24  0  0  1  0  0  0  0  0999 V2000
    3.5996    2.5146   -1.2174 O   0  0  0  0  0  0  0  0  0  0  0  0
    3.9918    1.6614   -0.4230 C   0  0  0  0  0  0  0  0  0  0  0  0
    3.1433    1.0564    0.6636 C   0  0  0  0  0  0  0  0  0  0  0  0
    2.1585    2.0563    1.2612 C   0  0  3  0  0  0  0  0  0  0  0  0
    1.3047    1.3439    2.1643 O   0  0  0  0  0  0  0  0  0  0  0  0
    2.8218    3.2107    1.9906 C   0  0  0  0  0  0  0  0  0  0  0  0
    2.5815    4.5246    1.5602 C   0  0  0  0  0  0  0  0  0  0  0  0
    3.1750    5.6118    2.2080 C   0  0  0  0  0  0  0  0  0  0  0  0
    4.0182    5.4048    3.3006 C   0  0  0  0  0  0  0  0  0  0  0  0
    4.7086    6.7928    4.0616 Cl  0  0  0  0  0  0  0  0  0  0  0  0
    4.2731    4.1022    3.7389 C   0  0  0  0  0  0  0  0  0  0  0  0
    5.3076    3.7618    5.0812 Cl  0  0  0  0  0  0  0  0  0  0  0  0
    3.6803    3.0132    3.0852 C   0  0  0  0  0  0  0  0  0  0  0  0
    5.2546    1.1181   -0.4938 N   0  0  0  0  0  0  0  0  0  0  0  0
    6.0694    1.5316   -1.5702 O   0  0  0  0  0  0  0  0  0  0  0  0
    3.7730    0.6151    1.4458 H   0  0  0  0  0  0  0  0  0  0  0  0
    2.5877    0.2223    0.2181 H   0  0  0  0  0  0  0  0  0  0  0  0
    1.5045    2.4432    0.4710 H   0  0  0  0  0  0  0  0  0  0  0  0
    1.7644    1.2328    3.0122 H   0  0  0  0  0  0  0  0  0  0  0  0
    1.9314    4.7141    0.7062 H   0  0  0  0  0  0  0  0  0  0  0  0
    2.9740    6.6197    1.8510 H   0  0  0  0  0  0  0  0  0  0  0  0
    3.8943    2.0086    3.4425 H   0  0  0  0  0  0  0  0  0  0  0  0
    5.5607    0.3007    0.0215 H   0  0  0  0  0  0  0  0  0  0  0  0
    5.4605    2.0940   -2.0959 H   0  0  0  0  0  0  0  0  0  0  0  0
  1  2  2  0  0  0  0
  2  3  1  0  0  0  0
  2 14  1  0  0  0  0
  3  4  1  0  0  0  0
  3 16  1  0  0  0  0
  3 17  1  0  0  0  0
  4  5  1  0  0  0  0
  4  6  1  0  0  0  0
  4 18  1  0  0  0  0
  5 19  1  0  0  0  0
  6  7  1  0  0  0  0
  6 13  2  0  0  0  0
  7  8  2  0  0  0  0
  7 20  1  0  0  0  0
  8  9  1  0  0  0  0
  8 21  1  0  0  0  0
  9 10  1  0  0  0  0
  9 11  2  0  0  0  0
 11 12  1  0  0  0  0
 11 13  1  0  0  0  0
 13 22  1  0  0  0  0
 14 15  1  0  0  0  0
 14 23  1  0  0  0  0
 15 24  1  0  0  0  0
M  END
>  <Line_Number>
59


> <IC50>
895

$$$$
