72707671.0
 OpenBabel09092522103D

 24 24  0  0  1  0  0  0  0  0999 V2000
    3.6290   -2.8702   -0.6009 O   0  0  0  0  0  0  0  0  0  0  0  0
    3.8054   -1.6831   -0.3447 C   0  0  0  0  0  0  0  0  0  0  0  0
    3.0476   -0.9139    0.7117 C   0  0  0  0  0  0  0  0  0  0  0  0
    2.1148   -1.7901    1.5636 C   0  0  3  0  0  0  0  0  0  0  0  0
    1.0922   -2.3140    0.7055 O   0  0  0  0  0  0  0  0  0  0  0  0
    2.7764   -2.8820    2.3983 C   0  0  0  0  0  0  0  0  0  0  0  0
    2.4691   -4.2380    2.1529 C   0  0  0  0  0  0  0  0  0  0  0  0
    3.0789   -5.2715    2.8650 C   0  0  0  0  0  0  0  0  0  0  0  0
    4.0145   -4.9750    3.8476 C   0  0  0  0  0  0  0  0  0  0  0  0
    4.3143   -3.6453    4.1433 C   0  0  0  0  0  0  0  0  0  0  0  0
    5.4841   -3.3645    5.3889 Cl  0  0  0  0  0  0  0  0  0  0  0  0
    3.6839   -2.5970    3.4437 C   0  0  0  0  0  0  0  0  0  0  0  0
    3.9900   -0.9537    3.9206 Cl  0  0  0  0  0  0  0  0  0  0  0  0
    4.7032   -0.9078   -1.0410 N   0  0  0  0  0  0  0  0  0  0  0  0
    5.5024   -1.5659   -1.9978 O   0  0  0  0  0  0  0  0  0  0  0  0
    2.4442   -0.1647    0.1823 H   0  0  0  0  0  0  0  0  0  0  0  0
    3.7769   -0.3773    1.3213 H   0  0  0  0  0  0  0  0  0  0  0  0
    1.5779   -1.1362    2.2608 H   0  0  0  0  0  0  0  0  0  0  0  0
    1.5455   -2.8555    0.0286 H   0  0  0  0  0  0  0  0  0  0  0  0
    1.7381   -4.5178    1.3948 H   0  0  0  0  0  0  0  0  0  0  0  0
    2.8242   -6.3053    2.6444 H   0  0  0  0  0  0  0  0  0  0  0  0
    4.4969   -5.7852    4.3884 H   0  0  0  0  0  0  0  0  0  0  0  0
    4.9564    0.0444   -0.8027 H   0  0  0  0  0  0  0  0  0  0  0  0
    5.2378   -2.5053   -1.8906 H   0  0  0  0  0  0  0  0  0  0  0  0
  1  2  2  0  0  0  0
  2  3  1  0  0  0  0
  2 14  1  0  0  0  0
  3  4  1  0  0  0  0
  3 16  1  0  0  0  0
  3 17  1  0  0  0  0
  4  5  1  0  0  0  0
  4  6  1  0  0  0  0
  4 18  1  0  0  0  0
  5 19  1  0  0  0  0
  6  7  1  0  0  0  0
  6 12  2  0  0  0  0
  7  8  2  0  0  0  0
  7 20  1  0  0  0  0
  8  9  1  0  0  0  0
  8 21  1  0  0  0  0
  9 10  2  0  0  0  0
  9 22  1  0  0  0  0
 10 11  1  0  0  0  0
 10 12  1  0  0  0  0
 12 13  1  0  0  0  0
 14 15  1  0  0  0  0
 14 23  1  0  0  0  0
 15 24  1  0  0  0  0
M  END
>  <Line_Number>
60


> <IC50>
230

$$$$
