72707669.0
 OpenBabel09092522103D

 27 27  0  0  1  0  0  0  0  0999 V2000
    2.4893    1.1774   -0.0427 O   0  0  0  0  0  0  0  0  0  0  0  0
    1.9518    0.2210   -0.6005 C   0  0  0  0  0  0  0  0  0  0  0  0
    2.7361   -0.9883   -1.0662 C   0  0  0  0  0  0  0  0  0  0  0  0
    2.0042   -2.3159   -0.8522 C   0  0  3  0  0  0  0  0  0  0  0  0
    0.8130   -2.2955   -1.6582 O   0  0  0  0  0  0  0  0  0  0  0  0
    2.7811   -3.5724   -1.2128 C   0  0  0  0  0  0  0  0  0  0  0  0
    4.0872   -3.5517   -1.7201 C   0  0  0  0  0  0  0  0  0  0  0  0
    4.7429   -4.7402   -2.0622 C   0  0  0  0  0  0  0  0  0  0  0  0
    4.1085   -5.9810   -1.9096 C   0  0  0  0  0  0  0  0  0  0  0  0
    4.8067   -7.2651   -2.2888 C   0  0  0  0  0  0  0  0  0  0  0  0
    6.0607   -7.0779   -2.7864 F   0  0  0  0  0  0  0  0  0  0  0  0
    4.9469   -8.1141   -1.2334 F   0  0  0  0  0  0  0  0  0  0  0  0
    4.1286   -7.9624   -3.2422 F   0  0  0  0  0  0  0  0  0  0  0  0
    2.8071   -6.0090   -1.3970 C   0  0  0  0  0  0  0  0  0  0  0  0
    2.1544   -4.8206   -1.0485 C   0  0  0  0  0  0  0  0  0  0  0  0
    0.6225    0.2334   -0.9306 N   0  0  0  0  0  0  0  0  0  0  0  0
   -0.1383    1.3204   -0.4505 O   0  0  0  0  0  0  0  0  0  0  0  0
    3.6774   -0.9902   -0.5034 H   0  0  0  0  0  0  0  0  0  0  0  0
    2.9658   -0.8320   -2.1272 H   0  0  0  0  0  0  0  0  0  0  0  0
    1.6879   -2.3883    0.1966 H   0  0  0  0  0  0  0  0  0  0  0  0
    1.0359   -2.7069   -2.5150 H   0  0  0  0  0  0  0  0  0  0  0  0
    4.6285   -2.6196   -1.8641 H   0  0  0  0  0  0  0  0  0  0  0  0
    5.7579   -4.6910   -2.4532 H   0  0  0  0  0  0  0  0  0  0  0  0
    2.2912   -6.9589   -1.2670 H   0  0  0  0  0  0  0  0  0  0  0  0
    1.1376   -4.8735   -0.6591 H   0  0  0  0  0  0  0  0  0  0  0  0
    0.1210   -0.6257   -1.1699 H   0  0  0  0  0  0  0  0  0  0  0  0
    0.5454    1.8803   -0.0234 H   0  0  0  0  0  0  0  0  0  0  0  0
  1  2  2  0  0  0  0
  2  3  1  0  0  0  0
  2 16  1  0  0  0  0
  3  4  1  0  0  0  0
  3 18  1  0  0  0  0
  3 19  1  0  0  0  0
  4  5  1  0  0  0  0
  4  6  1  0  0  0  0
  4 20  1  0  0  0  0
  5 21  1  0  0  0  0
  6  7  1  0  0  0  0
  6 15  2  0  0  0  0
  7  8  2  0  0  0  0
  7 22  1  0  0  0  0
  8  9  1  0  0  0  0
  8 23  1  0  0  0  0
  9 10  1  0  0  0  0
  9 14  2  0  0  0  0
 10 11  1  0  0  0  0
 10 12  1  0  0  0  0
 10 13  1  0  0  0  0
 14 15  1  0  0  0  0
 14 24  1  0  0  0  0
 15 25  1  0  0  0  0
 16 17  1  0  0  0  0
 16 26  1  0  0  0  0
 17 27  1  0  0  0  0
M  END
>  <Line_Number>
64


> <IC50>
7890

$$$$
