72707742.0
 OpenBabel09092522103D

 25 25  0  0  1  0  0  0  0  0999 V2000
    3.5721    2.8656    0.9459 O   0  0  0  0  0  0  0  0  0  0  0  0
    3.9221    1.8371    0.3707 C   0  0  0  0  0  0  0  0  0  0  0  0
    3.0345    1.1104   -0.6270 C   0  0  0  0  0  0  0  0  0  0  0  0
    2.0824    2.0695   -1.3526 C   0  0  3  0  0  0  0  0  0  0  0  0
    1.1764    2.6362   -0.3977 O   0  0  0  0  0  0  0  0  0  0  0  0
    2.7538    3.1392   -2.1972 C   0  0  0  0  0  0  0  0  0  0  0  0
    2.5342    4.5042   -1.9257 C   0  0  0  0  0  0  0  0  0  0  0  0
    3.1495    5.5044   -2.6793 C   0  0  0  0  0  0  0  0  0  0  0  0
    2.8584    7.1573   -2.2977 Cl  0  0  0  0  0  0  0  0  0  0  0  0
    3.9928    5.1789   -3.7353 C   0  0  0  0  0  0  0  0  0  0  0  0
    4.2004    3.8361   -4.0405 C   0  0  0  0  0  0  0  0  0  0  0  0
    5.2306    3.4311   -5.3650 Cl  0  0  0  0  0  0  0  0  0  0  0  0
    3.5900    2.8260   -3.2842 C   0  0  0  0  0  0  0  0  0  0  0  0
    3.7826    1.5096   -3.6150 O   0  0  0  0  0  0  0  0  0  0  0  0
    5.1100    1.2046    0.6059 N   0  0  0  0  0  0  0  0  0  0  0  0
    5.9893    1.7502    1.5589 O   0  0  0  0  0  0  0  0  0  0  0  0
    2.4496    0.3787   -0.0562 H   0  0  0  0  0  0  0  0  0  0  0  0
    3.6592    0.5559   -1.3337 H   0  0  0  0  0  0  0  0  0  0  0  0
    1.4459    1.4803   -2.0270 H   0  0  0  0  0  0  0  0  0  0  0  0
    1.7303    3.0197    0.3189 H   0  0  0  0  0  0  0  0  0  0  0  0
    1.8685    4.8012   -1.1159 H   0  0  0  0  0  0  0  0  0  0  0  0
    4.4705    5.9607   -4.3162 H   0  0  0  0  0  0  0  0  0  0  0  0
    4.3186    1.4863   -4.4327 H   0  0  0  0  0  0  0  0  0  0  0  0
    5.3719    0.3054    0.2101 H   0  0  0  0  0  0  0  0  0  0  0  0
    5.8923    2.7145    1.4204 H   0  0  0  0  0  0  0  0  0  0  0  0
  1  2  2  0  0  0  0
  2  3  1  0  0  0  0
  2 15  1  0  0  0  0
  3  4  1  0  0  0  0
  3 17  1  0  0  0  0
  3 18  1  0  0  0  0
  4  5  1  0  0  0  0
  4  6  1  0  0  0  0
  4 19  1  0  0  0  0
  5 20  1  0  0  0  0
  6  7  1  0  0  0  0
  6 13  2  0  0  0  0
  7  8  2  0  0  0  0
  7 21  1  0  0  0  0
  8  9  1  0  0  0  0
  8 10  1  0  0  0  0
 10 11  2  0  0  0  0
 10 22  1  0  0  0  0
 11 12  1  0  0  0  0
 11 13  1  0  0  0  0
 13 14  1  0  0  0  0
 14 23  1  0  0  0  0
 15 16  1  0  0  0  0
 15 24  1  0  0  0  0
 16 25  1  0  0  0  0
M  END
>  <Line_Number>
65


> <IC50>
4970

$$$$
