71721720.0
 OpenBabel09092522103D

 24 24  0  0  1  0  0  0  0  0999 V2000
    2.4496   -0.3625   -1.2389 O   0  0  0  0  0  0  0  0  0  0  0  0
    2.1143   -0.0500   -0.0983 C   0  0  0  0  0  0  0  0  0  0  0  0
    2.8737    0.9612    0.7365 C   0  0  0  0  0  0  0  0  0  0  0  0
    1.9246    1.9316    1.4392 C   0  0  3  0  0  0  0  0  0  0  0  0
    1.1198    1.1936    2.3741 O   0  0  0  0  0  0  0  0  0  0  0  0
    2.6239    3.0579    2.1716 C   0  0  0  0  0  0  0  0  0  0  0  0
    2.3422    4.3883    1.8281 C   0  0  0  0  0  0  0  0  0  0  0  0
    2.8994    5.4447    2.5493 C   0  0  0  0  0  0  0  0  0  0  0  0
    3.7425    5.1864    3.6282 C   0  0  0  0  0  0  0  0  0  0  0  0
    4.0464    3.8720    3.9691 C   0  0  0  0  0  0  0  0  0  0  0  0
    3.5009    2.8148    3.2417 C   0  0  0  0  0  0  0  0  0  0  0  0
    1.0583   -0.6597    0.5395 N   0  0  0  0  0  0  0  0  0  0  0  0
    0.2561   -1.5163   -0.2490 O   0  0  0  0  0  0  0  0  0  0  0  0
    3.5438    1.5113    0.0671 H   0  0  0  0  0  0  0  0  0  0  0  0
    3.4875    0.4027    1.4524 H   0  0  0  0  0  0  0  0  0  0  0  0
    1.2288    2.3473    0.6995 H   0  0  0  0  0  0  0  0  0  0  0  0
    1.4445    1.3803    3.2745 H   0  0  0  0  0  0  0  0  0  0  0  0
    1.6704    4.6180    1.0020 H   0  0  0  0  0  0  0  0  0  0  0  0
    2.6638    6.4722    2.2806 H   0  0  0  0  0  0  0  0  0  0  0  0
    4.1581    6.0115    4.2029 H   0  0  0  0  0  0  0  0  0  0  0  0
    4.7004    3.6719    4.8175 H   0  0  0  0  0  0  0  0  0  0  0  0
    3.7501    1.7980    3.5363 H   0  0  0  0  0  0  0  0  0  0  0  0
    0.6060   -0.2067    1.3369 H   0  0  0  0  0  0  0  0  0  0  0  0
    0.7163   -1.4873   -1.1205 H   0  0  0  0  0  0  0  0  0  0  0  0
  1  2  2  0  0  0  0
  2  3  1  0  0  0  0
  2 12  1  0  0  0  0
  3  4  1  0  0  0  0
  3 14  1  0  0  0  0
  3 15  1  0  0  0  0
  4  5  1  0  0  0  0
  4  6  1  0  0  0  0
  4 16  1  0  0  0  0
  5 17  1  0  0  0  0
  6  7  1  0  0  0  0
  6 11  2  0  0  0  0
  7  8  2  0  0  0  0
  7 18  1  0  0  0  0
  8  9  1  0  0  0  0
  8 19  1  0  0  0  0
  9 10  2  0  0  0  0
  9 20  1  0  0  0  0
 10 11  1  0  0  0  0
 10 21  1  0  0  0  0
 11 22  1  0  0  0  0
 12 13  1  0  0  0  0
 12 23  1  0  0  0  0
 13 24  1  0  0  0  0
M  END
>  <Line_Number>
66


> <IC50>
15600

$$$$
