72707667.0
 OpenBabel09092522103D

 24 24  0  0  1  0  0  0  0  0999 V2000
    3.4841    2.8115    0.3210 O   0  0  0  0  0  0  0  0  0  0  0  0
    3.8241    1.6348    0.4331 C   0  0  0  0  0  0  0  0  0  0  0  0
    2.9592    0.5550    1.0346 C   0  0  0  0  0  0  0  0  0  0  0  0
    2.0120    1.0994    2.1026 C   0  0  3  0  0  0  0  0  0  0  0  0
    1.1583    0.0282    2.5156 O   0  0  0  0  0  0  0  0  0  0  0  0
    2.7422    1.6862    3.2993 C   0  0  0  0  0  0  0  0  0  0  0  0
    2.5439    3.0380    3.6313 C   0  0  0  0  0  0  0  0  0  0  0  0
    3.2584    3.6344    4.6720 C   0  0  0  0  0  0  0  0  0  0  0  0
    4.1794    2.8825    5.3944 C   0  0  0  0  0  0  0  0  0  0  0  0
    5.0971    3.6232    6.6472 Cl  0  0  0  0  0  0  0  0  0  0  0  0
    4.3770    1.5380    5.0957 C   0  0  0  0  0  0  0  0  0  0  0  0
    3.6592    0.9378    4.0572 C   0  0  0  0  0  0  0  0  0  0  0  0
    5.0275    1.1767   -0.0369 N   0  0  0  0  0  0  0  0  0  0  0  0
    5.9095    2.1384   -0.5720 O   0  0  0  0  0  0  0  0  0  0  0  0
    3.5823   -0.2495    1.4421 H   0  0  0  0  0  0  0  0  0  0  0  0
    2.3771    0.1043    0.2214 H   0  0  0  0  0  0  0  0  0  0  0  0
    1.3578    1.8571    1.6556 H   0  0  0  0  0  0  0  0  0  0  0  0
    1.6087   -0.4795    3.2091 H   0  0  0  0  0  0  0  0  0  0  0  0
    1.8403    3.6463    3.0612 H   0  0  0  0  0  0  0  0  0  0  0  0
    3.1056    4.6859    4.8976 H   0  0  0  0  0  0  0  0  0  0  0  0
    5.0934    0.9486    5.6649 H   0  0  0  0  0  0  0  0  0  0  0  0
    3.8392   -0.1109    3.8383 H   0  0  0  0  0  0  0  0  0  0  0  0
    5.4008    0.2465    0.1178 H   0  0  0  0  0  0  0  0  0  0  0  0
    5.3937    2.9696   -0.4808 H   0  0  0  0  0  0  0  0  0  0  0  0
  1  2  2  0  0  0  0
  2  3  1  0  0  0  0
  2 13  1  0  0  0  0
  3  4  1  0  0  0  0
  3 15  1  0  0  0  0
  3 16  1  0  0  0  0
  4  5  1  0  0  0  0
  4  6  1  0  0  0  0
  4 17  1  0  0  0  0
  5 18  1  0  0  0  0
  6  7  1  0  0  0  0
  6 12  2  0  0  0  0
  7  8  2  0  0  0  0
  7 19  1  0  0  0  0
  8  9  1  0  0  0  0
  8 20  1  0  0  0  0
  9 10  1  0  0  0  0
  9 11  2  0  0  0  0
 11 12  1  0  0  0  0
 11 21  1  0  0  0  0
 12 22  1  0  0  0  0
 13 14  1  0  0  0  0
 13 23  1  0  0  0  0
 14 24  1  0  0  0  0
M  END
>  <Line_Number>
68


> <IC50>
3390

$$$$
