72707602.0
 OpenBabel09092522103D

 28 28  0  0  1  0  0  0  0  0999 V2000
    1.2956    0.5378    0.4497 C   0  0  0  0  0  0  0  0  0  0  0  0
    2.4449   -0.0744   -0.1229 O   0  0  0  0  0  0  0  0  0  0  0  0
    3.0401    0.5859   -1.1632 C   0  0  0  0  0  0  0  0  0  0  0  0
    2.5845    1.7651   -1.7532 C   0  0  0  0  0  0  0  0  0  0  0  0
    3.2968    2.3374   -2.8093 C   0  0  0  0  0  0  0  0  0  0  0  0
    4.4697    1.7406   -3.2714 C   0  0  0  0  0  0  0  0  0  0  0  0
    4.9477    0.5559   -2.6921 C   0  0  0  0  0  0  0  0  0  0  0  0
    6.2389   -0.0611   -3.1971 C   0  0  3  0  0  0  0  0  0  0  0  0
    7.2075   -0.1059   -2.1395 O   0  0  0  0  0  0  0  0  0  0  0  0
    6.0846   -1.4875   -3.7178 C   0  0  0  0  0  0  0  0  0  0  0  0
    5.2236   -1.5697   -4.9489 C   0  0  0  0  0  0  0  0  0  0  0  0
    5.1036   -0.6698   -5.7796 O   0  0  0  0  0  0  0  0  0  0  0  0
    4.6319   -2.8013   -5.1168 N   0  0  0  0  0  0  0  0  0  0  0  0
    3.7487   -2.9100   -6.2156 O   0  0  0  0  0  0  0  0  0  0  0  0
    4.2116   -0.0138   -1.6394 C   0  0  0  0  0  0  0  0  0  0  0  0
    0.9715   -0.0820    1.2910 H   0  0  0  0  0  0  0  0  0  0  0  0
    0.4723    0.5790   -0.2712 H   0  0  0  0  0  0  0  0  0  0  0  0
    1.5291    1.5336    0.8417 H   0  0  0  0  0  0  0  0  0  0  0  0
    1.6798    2.2617   -1.4202 H   0  0  0  0  0  0  0  0  0  0  0  0
    2.9376    3.2533   -3.2719 H   0  0  0  0  0  0  0  0  0  0  0  0
    5.0057    2.2039   -4.0973 H   0  0  0  0  0  0  0  0  0  0  0  0
    6.6711    0.5704   -3.9816 H   0  0  0  0  0  0  0  0  0  0  0  0
    6.7462    0.0058   -1.2915 H   0  0  0  0  0  0  0  0  0  0  0  0
    5.6941   -2.1467   -2.9339 H   0  0  0  0  0  0  0  0  0  0  0  0
    7.0733   -1.8844   -3.9809 H   0  0  0  0  0  0  0  0  0  0  0  0
    4.4515   -3.4287   -4.3377 H   0  0  0  0  0  0  0  0  0  0  0  0
    3.8268   -2.0277   -6.6382 H   0  0  0  0  0  0  0  0  0  0  0  0
    4.5503   -0.9324   -1.1637 H   0  0  0  0  0  0  0  0  0  0  0  0
  1  2  1  0  0  0  0
  1 16  1  0  0  0  0
  1 17  1  0  0  0  0
  1 18  1  0  0  0  0
  2  3  1  0  0  0  0
  3  4  1  0  0  0  0
  3 15  2  0  0  0  0
  4  5  2  0  0  0  0
  4 19  1  0  0  0  0
  5  6  1  0  0  0  0
  5 20  1  0  0  0  0
  6  7  2  0  0  0  0
  6 21  1  0  0  0  0
  7  8  1  0  0  0  0
  7 15  1  0  0  0  0
  8  9  1  0  0  0  0
  8 10  1  0  0  0  0
  8 22  1  0  0  0  0
  9 23  1  0  0  0  0
 10 11  1  0  0  0  0
 10 24  1  0  0  0  0
 10 25  1  0  0  0  0
 11 12  2  0  0  0  0
 11 13  1  0  0  0  0
 13 14  1  0  0  0  0
 13 26  1  0  0  0  0
 14 27  1  0  0  0  0
 15 28  1  0  0  0  0
M  END
>  <Line_Number>
69


> <IC50>
23200

$$$$
