49844557.0
 OpenBabel09092522103D

 30 31  0  0  0  0  0  0  0  0999 V2000
    1.6373   -1.5341    0.1471 O   0  0  0  0  0  0  0  0  0  0  0  0
    0.4761   -0.8155    0.0970 C   0  0  0  0  0  0  0  0  0  0  0  0
   -0.0779   -0.4519   -1.1277 C   0  0  0  0  0  0  0  0  0  0  0  0
   -1.2634    0.2899   -1.1596 C   0  0  0  0  0  0  0  0  0  0  0  0
   -1.8986    0.6773    0.0301 C   0  0  0  0  0  0  0  0  0  0  0  0
   -3.1734    1.4893   -0.0063 C   0  0  0  0  0  0  0  0  0  0  0  0
   -4.4266    0.6084   -0.0092 C   0  0  0  0  0  0  0  0  0  0  0  0
   -5.6985    1.4256   -0.0409 C   0  0  0  0  0  0  0  0  0  0  0  0
   -6.2617    1.8141   -1.2667 C   0  0  0  0  0  0  0  0  0  0  0  0
   -7.4394    2.5640   -1.2970 C   0  0  0  0  0  0  0  0  0  0  0  0
   -8.0506    2.9314   -0.1050 C   0  0  0  0  0  0  0  0  0  0  0  0
   -9.1834    3.6461   -0.1364 F   0  0  0  0  0  0  0  0  0  0  0  0
   -7.5045    2.5659    1.1191 C   0  0  0  0  0  0  0  0  0  0  0  0
   -6.3266    1.8156    1.1524 C   0  0  0  0  0  0  0  0  0  0  0  0
   -1.3355    0.2948    1.2574 C   0  0  0  0  0  0  0  0  0  0  0  0
   -0.1518   -0.4451    1.2853 C   0  0  0  0  0  0  0  0  0  0  0  0
    0.4066   -0.8094    2.4790 O   0  0  0  0  0  0  0  0  0  0  0  0
    1.9445   -1.7037   -0.7559 H   0  0  0  0  0  0  0  0  0  0  0  0
    0.3983   -0.7311   -2.0624 H   0  0  0  0  0  0  0  0  0  0  0  0
   -1.6847    0.5712   -2.1231 H   0  0  0  0  0  0  0  0  0  0  0  0
   -3.1615    2.1394   -0.8911 H   0  0  0  0  0  0  0  0  0  0  0  0
   -3.1887    2.1698    0.8555 H   0  0  0  0  0  0  0  0  0  0  0  0
   -4.4388   -0.0427    0.8747 H   0  0  0  0  0  0  0  0  0  0  0  0
   -4.4143   -0.0697   -0.8726 H   0  0  0  0  0  0  0  0  0  0  0  0
   -5.7904    1.5286   -2.2043 H   0  0  0  0  0  0  0  0  0  0  0  0
   -7.8846    2.8606   -2.2416 H   0  0  0  0  0  0  0  0  0  0  0  0
   -8.0003    2.8640    2.0371 H   0  0  0  0  0  0  0  0  0  0  0  0
   -5.9072    1.5315    2.1150 H   0  0  0  0  0  0  0  0  0  0  0  0
   -1.8228    0.5836    2.1839 H   0  0  0  0  0  0  0  0  0  0  0  0
   -0.1272   -0.4478    3.2020 H   0  0  0  0  0  0  0  0  0  0  0  0
  1  2  1  0  0  0  0
  1 18  1  0  0  0  0
  2  3  1  0  0  0  0
  2 16  2  0  0  0  0
  3  4  2  0  0  0  0
  3 19  1  0  0  0  0
  4  5  1  0  0  0  0
  4 20  1  0  0  0  0
  5  6  1  0  0  0  0
  5 15  2  0  0  0  0
  6  7  1  0  0  0  0
  6 21  1  0  0  0  0
  6 22  1  0  0  0  0
  7  8  1  0  0  0  0
  7 23  1  0  0  0  0
  7 24  1  0  0  0  0
  8  9  1  0  0  0  0
  8 14  2  0  0  0  0
  9 10  2  0  0  0  0
  9 25  1  0  0  0  0
 10 11  1  0  0  0  0
 10 26  1  0  0  0  0
 11 12  1  0  0  0  0
 11 13  2  0  0  0  0
 13 14  1  0  0  0  0
 13 27  1  0  0  0  0
 14 28  1  0  0  0  0
 15 16  1  0  0  0  0
 15 29  1  0  0  0  0
 16 17  1  0  0  0  0
 17 30  1  0  0  0  0
M  END
>  <Line_Number>
6


> <IC50>
19300

$$$$
