72707665.0
 OpenBabel09092522103D

 28 28  0  0  1  0  0  0  0  0999 V2000
    1.2422   -0.5299   -0.5018 C   0  0  0  0  0  0  0  0  0  0  0  0
    2.4522    0.0610   -0.0435 O   0  0  0  0  0  0  0  0  0  0  0  0
    3.1117   -0.5889    0.9607 C   0  0  0  0  0  0  0  0  0  0  0  0
    2.7121   -1.7706    1.5830 C   0  0  0  0  0  0  0  0  0  0  0  0
    3.4939   -2.3293    2.6019 C   0  0  0  0  0  0  0  0  0  0  0  0
    4.6835   -1.7139    3.0228 C   0  0  0  0  0  0  0  0  0  0  0  0
    5.4959   -2.3312    4.1452 C   0  0  3  0  0  0  0  0  0  0  0  0
    6.7930   -2.6987    3.6536 O   0  0  0  0  0  0  0  0  0  0  0  0
    5.7178   -1.3903    5.3256 C   0  0  0  0  0  0  0  0  0  0  0  0
    4.4390   -0.9909    6.0147 C   0  0  0  0  0  0  0  0  0  0  0  0
    3.4475   -1.7091    6.1140 O   0  0  0  0  0  0  0  0  0  0  0  0
    4.5096    0.2493    6.6115 N   0  0  0  0  0  0  0  0  0  0  0  0
    3.3234    0.7080    7.2254 O   0  0  0  0  0  0  0  0  0  0  0  0
    5.0734   -0.5257    2.3902 C   0  0  0  0  0  0  0  0  0  0  0  0
    4.2982    0.0274    1.3730 C   0  0  0  0  0  0  0  0  0  0  0  0
    0.8626    0.0822   -1.3252 H   0  0  0  0  0  0  0  0  0  0  0  0
    0.4846   -0.5341    0.2887 H   0  0  0  0  0  0  0  0  0  0  0  0
    1.4161   -1.5387   -0.8909 H   0  0  0  0  0  0  0  0  0  0  0  0
    1.7983   -2.2820    1.3035 H   0  0  0  0  0  0  0  0  0  0  0  0
    3.1550   -3.2509    3.0737 H   0  0  0  0  0  0  0  0  0  0  0  0
    5.0213   -3.2562    4.4916 H   0  0  0  0  0  0  0  0  0  0  0  0
    7.0235   -2.1100    2.9208 H   0  0  0  0  0  0  0  0  0  0  0  0
    6.2760   -0.5005    5.0102 H   0  0  0  0  0  0  0  0  0  0  0  0
    6.3490   -1.8889    6.0725 H   0  0  0  0  0  0  0  0  0  0  0  0
    5.1596    0.9671    6.3056 H   0  0  0  0  0  0  0  0  0  0  0  0
    2.7209   -0.0631    7.1254 H   0  0  0  0  0  0  0  0  0  0  0  0
    5.9899   -0.0144    2.6788 H   0  0  0  0  0  0  0  0  0  0  0  0
    4.6141    0.9483    0.8904 H   0  0  0  0  0  0  0  0  0  0  0  0
  1  2  1  0  0  0  0
  1 16  1  0  0  0  0
  1 17  1  0  0  0  0
  1 18  1  0  0  0  0
  2  3  1  0  0  0  0
  3  4  1  0  0  0  0
  3 15  2  0  0  0  0
  4  5  2  0  0  0  0
  4 19  1  0  0  0  0
  5  6  1  0  0  0  0
  5 20  1  0  0  0  0
  6  7  1  0  0  0  0
  6 14  2  0  0  0  0
  7  8  1  0  0  0  0
  7  9  1  0  0  0  0
  7 21  1  0  0  0  0
  8 22  1  0  0  0  0
  9 10  1  0  0  0  0
  9 23  1  0  0  0  0
  9 24  1  0  0  0  0
 10 11  2  0  0  0  0
 10 12  1  0  0  0  0
 12 13  1  0  0  0  0
 12 25  1  0  0  0  0
 13 26  1  0  0  0  0
 14 15  1  0  0  0  0
 14 27  1  0  0  0  0
 15 28  1  0  0  0  0
M  END
>  <Line_Number>
70


> <IC50>
75100

$$$$
