72707599.0
 OpenBabel09092522103D

 24 24  0  0  1  0  0  0  0  0999 V2000
    4.0799   -1.9942   -1.8185 O   0  0  0  0  0  0  0  0  0  0  0  0
    3.9234   -1.0855   -1.0100 C   0  0  0  0  0  0  0  0  0  0  0  0
    2.9759   -1.1358    0.1683 C   0  0  0  0  0  0  0  0  0  0  0  0
    2.2764   -2.4855    0.3451 C   0  0  3  0  0  0  0  0  0  0  0  0
    1.3907   -2.6144   -0.7845 O   0  0  0  0  0  0  0  0  0  0  0  0
    3.0474   -3.7858    0.5490 C   0  0  0  0  0  0  0  0  0  0  0  0
    2.4224   -4.9823    0.1170 C   0  0  0  0  0  0  0  0  0  0  0  0
    3.0250   -6.2343    0.2568 C   0  0  0  0  0  0  0  0  0  0  0  0
    4.2689   -6.3352    0.8586 C   0  0  0  0  0  0  0  0  0  0  0  0
    4.8889   -5.1862    1.3410 C   0  0  0  0  0  0  0  0  0  0  0  0
    4.2829   -3.9254    1.2057 C   0  0  0  0  0  0  0  0  0  0  0  0
    5.1348   -2.6205    1.9480 Cl  0  0  0  0  0  0  0  0  0  0  0  0
    4.5699    0.1225   -1.1207 N   0  0  0  0  0  0  0  0  0  0  0  0
    5.5015    0.2608   -2.1701 O   0  0  0  0  0  0  0  0  0  0  0  0
    2.2120   -0.3704   -0.0257 H   0  0  0  0  0  0  0  0  0  0  0  0
    3.4997   -0.8212    1.0727 H   0  0  0  0  0  0  0  0  0  0  0  0
    1.6194   -2.3890    1.2189 H   0  0  0  0  0  0  0  0  0  0  0  0
    1.9632   -2.8437   -1.5457 H   0  0  0  0  0  0  0  0  0  0  0  0
    1.4321   -4.9482   -0.3392 H   0  0  0  0  0  0  0  0  0  0  0  0
    2.5156   -7.1251   -0.1028 H   0  0  0  0  0  0  0  0  0  0  0  0
    4.7482   -7.3043    0.9690 H   0  0  0  0  0  0  0  0  0  0  0  0
    5.8516   -5.2800    1.8396 H   0  0  0  0  0  0  0  0  0  0  0  0
    4.5482    0.8565   -0.4223 H   0  0  0  0  0  0  0  0  0  0  0  0
    5.4987   -0.6316   -2.5782 H   0  0  0  0  0  0  0  0  0  0  0  0
  1  2  2  0  0  0  0
  2  3  1  0  0  0  0
  2 13  1  0  0  0  0
  3  4  1  0  0  0  0
  3 15  1  0  0  0  0
  3 16  1  0  0  0  0
  4  5  1  0  0  0  0
  4  6  1  0  0  0  0
  4 17  1  0  0  0  0
  5 18  1  0  0  0  0
  6  7  1  0  0  0  0
  6 11  2  0  0  0  0
  7  8  2  0  0  0  0
  7 19  1  0  0  0  0
  8  9  1  0  0  0  0
  8 20  1  0  0  0  0
  9 10  2  0  0  0  0
  9 21  1  0  0  0  0
 10 11  1  0  0  0  0
 10 22  1  0  0  0  0
 11 12  1  0  0  0  0
 13 14  1  0  0  0  0
 13 23  1  0  0  0  0
 14 24  1  0  0  0  0
M  END
>  <Line_Number>
72


> <IC50>
5200

$$$$
