307149.0
 OpenBabel09092522103D

 25 25  0  0  0  0  0  0  0  0999 V2000
    1.2745   -0.4568    0.0250 C   0  0  0  0  0  0  0  0  0  0  0  0
    2.5620    0.2135   -0.1216 N   0  0  0  0  0  0  0  0  0  0  0  0
    3.2753   -0.0001   -1.3797 C   0  0  0  0  0  0  0  0  0  0  0  0
    3.2830    0.6242    0.9996 C   0  0  0  0  0  0  0  0  0  0  0  0
    2.8229    0.4173    2.3125 C   0  0  0  0  0  0  0  0  0  0  0  0
    3.5626    0.8150    3.4390 C   0  0  0  0  0  0  0  0  0  0  0  0
    4.7898    1.4568    3.2764 C   0  0  0  0  0  0  0  0  0  0  0  0
    5.6324    1.8693    4.4284 C   0  0  0  0  0  0  0  0  0  0  0  0
    6.8503    1.9787    4.3229 O   0  0  0  0  0  0  0  0  0  0  0  0
    4.9735    2.1667    5.6013 N   0  0  0  0  0  0  0  0  0  0  0  0
    5.7923    2.7212    6.6154 O   0  0  0  0  0  0  0  0  0  0  0  0
    5.2666    1.6911    1.9882 C   0  0  0  0  0  0  0  0  0  0  0  0
    4.5171    1.2891    0.8759 C   0  0  0  0  0  0  0  0  0  0  0  0
    0.8426   -0.7150   -0.9491 H   0  0  0  0  0  0  0  0  0  0  0  0
    0.5516    0.2016    0.5177 H   0  0  0  0  0  0  0  0  0  0  0  0
    1.3706   -1.3873    0.5944 H   0  0  0  0  0  0  0  0  0  0  0  0
    2.6428   -0.4867   -2.1296 H   0  0  0  0  0  0  0  0  0  0  0  0
    4.1524   -0.6414   -1.2340 H   0  0  0  0  0  0  0  0  0  0  0  0
    3.5903    0.9556   -1.8124 H   0  0  0  0  0  0  0  0  0  0  0  0
    1.8801   -0.0913    2.4950 H   0  0  0  0  0  0  0  0  0  0  0  0
    3.1742    0.5793    4.4260 H   0  0  0  0  0  0  0  0  0  0  0  0
    3.9953    2.4296    5.6241 H   0  0  0  0  0  0  0  0  0  0  0  0
    6.6867    2.6730    6.2083 H   0  0  0  0  0  0  0  0  0  0  0  0
    6.2210    2.1912    1.8371 H   0  0  0  0  0  0  0  0  0  0  0  0
    4.9291    1.5168   -0.1030 H   0  0  0  0  0  0  0  0  0  0  0  0
  1  2  1  0  0  0  0
  1 14  1  0  0  0  0
  1 15  1  0  0  0  0
  1 16  1  0  0  0  0
  2  3  1  0  0  0  0
  2  4  1  0  0  0  0
  3 17  1  0  0  0  0
  3 18  1  0  0  0  0
  3 19  1  0  0  0  0
  4  5  1  0  0  0  0
  4 13  2  0  0  0  0
  5  6  2  0  0  0  0
  5 20  1  0  0  0  0
  6  7  1  0  0  0  0
  6 21  1  0  0  0  0
  7  8  1  0  0  0  0
  7 12  2  0  0  0  0
  8  9  2  0  0  0  0
  8 10  1  0  0  0  0
 10 11  1  0  0  0  0
 10 22  1  0  0  0  0
 11 23  1  0  0  0  0
 12 13  1  0  0  0  0
 12 24  1  0  0  0  0
 13 25  1  0  0  0  0
M  END
>  <Line_Number>
74


> <IC50>
77900

$$$$
