72707601.0
 OpenBabel09092522103D

 25 25  0  0  1  0  0  0  0  0999 V2000
    2.5791   -0.3492   -1.2401 O   0  0  0  0  0  0  0  0  0  0  0  0
    2.2367   -0.0514   -0.0964 C   0  0  0  0  0  0  0  0  0  0  0  0
    3.0139    0.9279    0.7584 C   0  0  0  0  0  0  0  0  0  0  0  0
    2.1041    1.8760    1.5423 C   0  0  3  0  0  0  0  0  0  0  0  0
    1.3115    1.1090    2.4629 O   0  0  0  0  0  0  0  0  0  0  0  0
    2.8753    2.9327    2.3066 C   0  0  0  0  0  0  0  0  0  0  0  0
    2.6138    4.2940    2.0881 C   0  0  0  0  0  0  0  0  0  0  0  0
    3.3008    5.2759    2.8093 C   0  0  0  0  0  0  0  0  0  0  0  0
    4.2511    4.9113    3.7618 C   0  0  0  0  0  0  0  0  0  0  0  0
    4.5084    3.5651    3.9846 C   0  0  0  0  0  0  0  0  0  0  0  0
    5.4188    3.1560    4.9126 O   0  0  0  0  0  0  0  0  0  0  0  0
    3.8370    2.5798    3.2672 C   0  0  0  0  0  0  0  0  0  0  0  0
    1.1761   -0.6623    0.5249 N   0  0  0  0  0  0  0  0  0  0  0  0
    0.3858   -1.5158   -0.2761 O   0  0  0  0  0  0  0  0  0  0  0  0
    3.6644    1.5092    0.0929 H   0  0  0  0  0  0  0  0  0  0  0  0
    3.6508    0.3351    1.4245 H   0  0  0  0  0  0  0  0  0  0  0  0
    1.3980    2.3516    0.8508 H   0  0  0  0  0  0  0  0  0  0  0  0
    1.6986    1.2023    3.3522 H   0  0  0  0  0  0  0  0  0  0  0  0
    1.8684    4.6048    1.3579 H   0  0  0  0  0  0  0  0  0  0  0  0
    3.0885    6.3271    2.6292 H   0  0  0  0  0  0  0  0  0  0  0  0
    4.7727    5.6848    4.3169 H   0  0  0  0  0  0  0  0  0  0  0  0
    5.8108    3.9408    5.3310 H   0  0  0  0  0  0  0  0  0  0  0  0
    4.0658    1.5378    3.4758 H   0  0  0  0  0  0  0  0  0  0  0  0
    0.7282   -0.2374    1.3413 H   0  0  0  0  0  0  0  0  0  0  0  0
    0.8759   -1.5155   -1.1266 H   0  0  0  0  0  0  0  0  0  0  0  0
  1  2  2  0  0  0  0
  2  3  1  0  0  0  0
  2 13  1  0  0  0  0
  3  4  1  0  0  0  0
  3 15  1  0  0  0  0
  3 16  1  0  0  0  0
  4  5  1  0  0  0  0
  4  6  1  0  0  0  0
  4 17  1  0  0  0  0
  5 18  1  0  0  0  0
  6  7  1  0  0  0  0
  6 12  2  0  0  0  0
  7  8  2  0  0  0  0
  7 19  1  0  0  0  0
  8  9  1  0  0  0  0
  8 20  1  0  0  0  0
  9 10  2  0  0  0  0
  9 21  1  0  0  0  0
 10 11  1  0  0  0  0
 10 12  1  0  0  0  0
 11 22  1  0  0  0  0
 12 23  1  0  0  0  0
 13 14  1  0  0  0  0
 13 24  1  0  0  0  0
 14 25  1  0  0  0  0
M  END
>  <Line_Number>
75


> <IC50>
131000

$$$$
