155535566.0
 OpenBabel09092522103D

 27 27  0  0  1  0  0  0  0  0999 V2000
    0.8583    1.6828    0.1480 C   0  0  0  0  0  0  0  0  0  0  0  0
    2.2969    1.5527    0.3004 N   0  0  0  0  0  0  0  0  0  0  0  0
    2.8602    2.6280    1.0168 O   0  0  0  0  0  0  0  0  0  0  0  0
    3.0677    0.9567   -0.6824 C   0  0  0  0  0  0  0  0  0  0  0  0
    2.5900    0.2927   -1.5980 O   0  0  0  0  0  0  0  0  0  0  0  0
    4.5723    1.1015   -0.5342 C   0  0  0  0  0  0  0  0  0  0  0  0
    5.1241    2.2288   -1.4027 C   0  0  3  0  0  0  0  0  0  0  0  0
    4.6164    3.5105   -1.0614 O   0  0  0  0  0  0  0  0  0  0  0  0
    6.6483    2.2519   -1.3709 C   0  0  0  0  0  0  0  0  0  0  0  0
    7.3360    1.5672   -2.3939 C   0  0  0  0  0  0  0  0  0  0  0  0
    8.7324    1.5368   -2.4335 C   0  0  0  0  0  0  0  0  0  0  0  0
    9.4649    2.1958   -1.4535 C   0  0  0  0  0  0  0  0  0  0  0  0
   11.1849    2.1720   -1.5093 Cl  0  0  0  0  0  0  0  0  0  0  0  0
    8.8154    2.8638   -0.4212 C   0  0  0  0  0  0  0  0  0  0  0  0
    7.4162    2.8772   -0.3683 C   0  0  0  0  0  0  0  0  0  0  0  0
    6.7046    3.6553    1.0044 Cl  0  0  0  0  0  0  0  0  0  0  0  0
    0.4365    2.1789    1.0282 H   0  0  0  0  0  0  0  0  0  0  0  0
    0.4261    0.6840    0.0491 H   0  0  0  0  0  0  0  0  0  0  0  0
    0.6346    2.2593   -0.7521 H   0  0  0  0  0  0  0  0  0  0  0  0
    2.5967    2.4142    1.9325 H   0  0  0  0  0  0  0  0  0  0  0  0
    5.0101    0.1418   -0.8398 H   0  0  0  0  0  0  0  0  0  0  0  0
    4.8317    1.2270    0.5229 H   0  0  0  0  0  0  0  0  0  0  0  0
    4.8032    2.0734   -2.4390 H   0  0  0  0  0  0  0  0  0  0  0  0
    4.5557    3.5571   -0.0867 H   0  0  0  0  0  0  0  0  0  0  0  0
    6.7811    1.0473   -3.1742 H   0  0  0  0  0  0  0  0  0  0  0  0
    9.2382    0.9993   -3.2320 H   0  0  0  0  0  0  0  0  0  0  0  0
    9.3969    3.3677    0.3472 H   0  0  0  0  0  0  0  0  0  0  0  0
  1  2  1  0  0  0  0
  1 17  1  0  0  0  0
  1 18  1  0  0  0  0
  1 19  1  0  0  0  0
  2  3  1  0  0  0  0
  2  4  1  0  0  0  0
  3 20  1  0  0  0  0
  4  5  2  0  0  0  0
  4  6  1  0  0  0  0
  6  7  1  0  0  0  0
  6 21  1  0  0  0  0
  6 22  1  0  0  0  0
  7  8  1  0  0  0  0
  7  9  1  0  0  0  0
  7 23  1  0  0  0  0
  8 24  1  0  0  0  0
  9 10  1  0  0  0  0
  9 15  2  0  0  0  0
 10 11  2  0  0  0  0
 10 25  1  0  0  0  0
 11 12  1  0  0  0  0
 11 26  1  0  0  0  0
 12 13  1  0  0  0  0
 12 14  2  0  0  0  0
 14 15  1  0  0  0  0
 14 27  1  0  0  0  0
 15 16  1  0  0  0  0
M  END
>  <Line_Number>
79


> <IC50>
367000

$$$$
