155514177.0
 OpenBabel09092522103D

 27 27  0  0  1  0  0  0  0  0999 V2000
    1.1267   -1.7680    0.9302 C   0  0  0  0  0  0  0  0  0  0  0  0
    2.5621   -1.6169    0.7815 N   0  0  0  0  0  0  0  0  0  0  0  0
    3.2425   -2.8468    0.9015 O   0  0  0  0  0  0  0  0  0  0  0  0
    3.2149   -0.4748    1.2116 C   0  0  0  0  0  0  0  0  0  0  0  0
    2.6185    0.5561    1.5244 O   0  0  0  0  0  0  0  0  0  0  0  0
    4.7293   -0.5302    1.2168 C   0  0  0  0  0  0  0  0  0  0  0  0
    5.2929   -0.9584    2.5738 C   0  0  3  0  0  0  0  0  0  0  0  0
    4.9841   -2.3102    2.9126 O   0  0  0  0  0  0  0  0  0  0  0  0
    6.8124   -0.8794    2.5900 C   0  0  0  0  0  0  0  0  0  0  0  0
    7.4836   -0.0462    3.4959 C   0  0  0  0  0  0  0  0  0  0  0  0
    8.8820   -0.0071    3.5179 C   0  0  0  0  0  0  0  0  0  0  0  0
    9.6071   -0.7998    2.6376 C   0  0  0  0  0  0  0  0  0  0  0  0
   10.9472   -0.7617    2.6606 F   0  0  0  0  0  0  0  0  0  0  0  0
    8.9666   -1.6331    1.7345 C   0  0  0  0  0  0  0  0  0  0  0  0
    7.5734   -1.6796    1.7145 C   0  0  0  0  0  0  0  0  0  0  0  0
    0.8108   -2.7280    0.5108 H   0  0  0  0  0  0  0  0  0  0  0  0
    0.6308   -0.9538    0.3944 H   0  0  0  0  0  0  0  0  0  0  0  0
    0.8604   -1.7140    1.9888 H   0  0  0  0  0  0  0  0  0  0  0  0
    3.1345   -3.2181    0.0031 H   0  0  0  0  0  0  0  0  0  0  0  0
    5.0876    0.4751    0.9572 H   0  0  0  0  0  0  0  0  0  0  0  0
    5.0591   -1.1915    0.4080 H   0  0  0  0  0  0  0  0  0  0  0  0
    4.8748   -0.3260    3.3666 H   0  0  0  0  0  0  0  0  0  0  0  0
    4.3690   -2.6657    2.2438 H   0  0  0  0  0  0  0  0  0  0  0  0
    6.9277    0.5675    4.2009 H   0  0  0  0  0  0  0  0  0  0  0  0
    9.4098    0.6283    4.2212 H   0  0  0  0  0  0  0  0  0  0  0  0
    9.5509   -2.2502    1.0600 H   0  0  0  0  0  0  0  0  0  0  0  0
    7.0787   -2.3551    1.0229 H   0  0  0  0  0  0  0  0  0  0  0  0
  1  2  1  0  0  0  0
  1 16  1  0  0  0  0
  1 17  1  0  0  0  0
  1 18  1  0  0  0  0
  2  3  1  0  0  0  0
  2  4  1  0  0  0  0
  3 19  1  0  0  0  0
  4  5  2  0  0  0  0
  4  6  1  0  0  0  0
  6  7  1  0  0  0  0
  6 20  1  0  0  0  0
  6 21  1  0  0  0  0
  7  8  1  0  0  0  0
  7  9  1  0  0  0  0
  7 22  1  0  0  0  0
  8 23  1  0  0  0  0
  9 10  1  0  0  0  0
  9 15  2  0  0  0  0
 10 11  2  0  0  0  0
 10 24  1  0  0  0  0
 11 12  1  0  0  0  0
 11 25  1  0  0  0  0
 12 13  1  0  0  0  0
 12 14  2  0  0  0  0
 14 15  1  0  0  0  0
 14 26  1  0  0  0  0
 15 27  1  0  0  0  0
M  END
>  <Line_Number>
82


> <IC50>
77200

$$$$
