71727110.0
 OpenBabel09092522103D

 28 28  0  0  1  0  0  0  0  0999 V2000
    1.0132   -0.1125   -1.6515 C   0  0  0  0  0  0  0  0  0  0  0  0
    2.4615   -0.1620   -1.7002 N   0  0  0  0  0  0  0  0  0  0  0  0
    3.0593    1.0310   -2.1536 O   0  0  0  0  0  0  0  0  0  0  0  0
    3.1945   -1.0010   -0.8871 C   0  0  0  0  0  0  0  0  0  0  0  0
    2.6694   -1.8634   -0.1788 O   0  0  0  0  0  0  0  0  0  0  0  0
    4.7020   -0.8784   -0.9495 C   0  0  0  0  0  0  0  0  0  0  0  0
    5.2408   -1.8540   -1.9927 C   0  0  3  0  0  0  0  0  0  0  0  0
    4.7165   -1.5492   -3.2866 O   0  0  0  0  0  0  0  0  0  0  0  0
    6.7610   -1.8444   -2.0076 C   0  0  0  0  0  0  0  0  0  0  0  0
    7.4549   -2.7619   -1.2004 C   0  0  0  0  0  0  0  0  0  0  0  0
    8.8538   -2.7755   -1.1794 C   0  0  0  0  0  0  0  0  0  0  0  0
    9.6752   -3.9133   -0.1839 Cl  0  0  0  0  0  0  0  0  0  0  0  0
    9.5871   -1.8867   -1.9560 C   0  0  0  0  0  0  0  0  0  0  0  0
    8.9172   -0.9631   -2.7515 C   0  0  0  0  0  0  0  0  0  0  0  0
    7.5183   -0.9354   -2.7642 C   0  0  0  0  0  0  0  0  0  0  0  0
    6.8661   -0.0162   -3.5374 O   0  0  0  0  0  0  0  0  0  0  0  0
    0.6316    0.6531   -2.3326 H   0  0  0  0  0  0  0  0  0  0  0  0
    0.6884    0.0979   -0.6294 H   0  0  0  0  0  0  0  0  0  0  0  0
    0.6300   -1.0921   -1.9505 H   0  0  0  0  0  0  0  0  0  0  0  0
    2.5691    1.2167   -2.9758 H   0  0  0  0  0  0  0  0  0  0  0  0
    5.0972   -1.1124    0.0485 H   0  0  0  0  0  0  0  0  0  0  0  0
    5.0033    0.1513   -1.1636 H   0  0  0  0  0  0  0  0  0  0  0  0
    4.8912   -2.8694   -1.7671 H   0  0  0  0  0  0  0  0  0  0  0  0
    5.2144   -0.7668   -3.5961 H   0  0  0  0  0  0  0  0  0  0  0  0
    6.9042   -3.4704   -0.5833 H   0  0  0  0  0  0  0  0  0  0  0  0
   10.6741   -1.9164   -1.9447 H   0  0  0  0  0  0  0  0  0  0  0  0
    9.4940   -0.2712   -3.3553 H   0  0  0  0  0  0  0  0  0  0  0  0
    7.5263    0.4828   -4.0565 H   0  0  0  0  0  0  0  0  0  0  0  0
  1  2  1  0  0  0  0
  1 17  1  0  0  0  0
  1 18  1  0  0  0  0
  1 19  1  0  0  0  0
  2  3  1  0  0  0  0
  2  4  1  0  0  0  0
  3 20  1  0  0  0  0
  4  5  2  0  0  0  0
  4  6  1  0  0  0  0
  6  7  1  0  0  0  0
  6 21  1  0  0  0  0
  6 22  1  0  0  0  0
  7  8  1  0  0  0  0
  7  9  1  0  0  0  0
  7 23  1  0  0  0  0
  8 24  1  0  0  0  0
  9 10  1  0  0  0  0
  9 15  2  0  0  0  0
 10 11  2  0  0  0  0
 10 25  1  0  0  0  0
 11 12  1  0  0  0  0
 11 13  1  0  0  0  0
 13 14  2  0  0  0  0
 13 26  1  0  0  0  0
 14 15  1  0  0  0  0
 14 27  1  0  0  0  0
 15 16  1  0  0  0  0
 16 28  1  0  0  0  0
M  END
>  <Line_Number>
84


> <IC50>
30500

$$$$
