155553304.0
 OpenBabel09092522103D

 24 24  0  0  1  0  0  0  0  0999 V2000
    2.8128    1.2861   -0.2689 O   0  0  0  0  0  0  0  0  0  0  0  0
    2.3169    0.1991    0.0126 C   0  0  0  0  0  0  0  0  0  0  0  0
    3.0268   -0.8200    0.8981 C   0  0  0  0  0  0  0  0  0  0  0  0
    2.0656   -1.5373    1.8495 C   0  0  3  0  0  0  0  0  0  0  0  0
    1.1036   -2.2814    1.0948 O   0  0  0  0  0  0  0  0  0  0  0  0
    2.7642   -2.3952    2.8960 C   0  0  0  0  0  0  0  0  0  0  0  0
    3.0675   -1.7854    4.1306 C   0  0  0  0  0  0  0  0  0  0  0  0
    3.6565   -2.5050    5.1740 C   0  0  0  0  0  0  0  0  0  0  0  0
    3.9500   -3.8523    5.0029 C   0  0  0  0  0  0  0  0  0  0  0  0
    4.6450   -4.7485    6.2954 Cl  0  0  0  0  0  0  0  0  0  0  0  0
    3.6854   -4.4775    3.7897 C   0  0  0  0  0  0  0  0  0  0  0  0
    3.1144   -3.7510    2.7375 C   0  0  0  0  0  0  0  0  0  0  0  0
    2.8771   -4.6058    1.2532 Cl  0  0  0  0  0  0  0  0  0  0  0  0
    1.1184   -0.2140   -0.5115 N   0  0  0  0  0  0  0  0  0  0  0  0
    0.3762    0.7253   -1.2587 O   0  0  0  0  0  0  0  0  0  0  0  0
    3.7777   -0.2700    1.4816 H   0  0  0  0  0  0  0  0  0  0  0  0
    3.5515   -1.5225    0.2453 H   0  0  0  0  0  0  0  0  0  0  0  0
    1.4702   -0.7808    2.3768 H   0  0  0  0  0  0  0  0  0  0  0  0
    1.5199   -3.1217    0.8207 H   0  0  0  0  0  0  0  0  0  0  0  0
    2.8343   -0.7339    4.2963 H   0  0  0  0  0  0  0  0  0  0  0  0
    3.8723   -2.0097    6.1180 H   0  0  0  0  0  0  0  0  0  0  0  0
    3.9211   -5.5318    3.6635 H   0  0  0  0  0  0  0  0  0  0  0  0
    0.6002   -0.9999   -0.1127 H   0  0  0  0  0  0  0  0  0  0  0  0
    0.9332    1.5307   -1.2065 H   0  0  0  0  0  0  0  0  0  0  0  0
  1  2  2  0  0  0  0
  2  3  1  0  0  0  0
  2 14  1  0  0  0  0
  3  4  1  0  0  0  0
  3 16  1  0  0  0  0
  3 17  1  0  0  0  0
  4  5  1  0  0  0  0
  4  6  1  0  0  0  0
  4 18  1  0  0  0  0
  5 19  1  0  0  0  0
  6  7  1  0  0  0  0
  6 12  2  0  0  0  0
  7  8  2  0  0  0  0
  7 20  1  0  0  0  0
  8  9  1  0  0  0  0
  8 21  1  0  0  0  0
  9 10  1  0  0  0  0
  9 11  2  0  0  0  0
 11 12  1  0  0  0  0
 11 22  1  0  0  0  0
 12 13  1  0  0  0  0
 14 15  1  0  0  0  0
 14 23  1  0  0  0  0
 15 24  1  0  0  0  0
M  END
>  <Line_Number>
85


> <IC50>
13400

$$$$
