155528209.0
 OpenBabel09092522103D

 27 27  0  0  1  0  0  0  0  0999 V2000
    4.8502    3.3472    1.9087 C   0  0  0  0  0  0  0  0  0  0  0  0
    4.6373    1.9180    2.0686 N   0  0  0  0  0  0  0  0  0  0  0  0
    3.6144    1.5437    2.9630 O   0  0  0  0  0  0  0  0  0  0  0  0
    4.9367    1.0352    1.0504 C   0  0  0  0  0  0  0  0  0  0  0  0
    5.5398    1.3803    0.0314 O   0  0  0  0  0  0  0  0  0  0  0  0
    4.5278   -0.4045    1.2538 C   0  0  0  0  0  0  0  0  0  0  0  0
    5.2055   -1.0459    2.4647 C   0  0  3  0  0  0  0  0  0  0  0  0
    4.7635   -2.4068    2.5384 O   0  0  0  0  0  0  0  0  0  0  0  0
    6.7245   -1.0279    2.4792 C   0  0  0  0  0  0  0  0  0  0  0  0
    7.3862   -0.9380    3.7170 C   0  0  0  0  0  0  0  0  0  0  0  0
    8.7815   -0.9300    3.7860 C   0  0  0  0  0  0  0  0  0  0  0  0
    9.5293   -1.0179    2.6181 C   0  0  0  0  0  0  0  0  0  0  0  0
   11.4181   -1.0037    2.7062 Br  0  0  0  0  0  0  0  0  0  0  0  0
    8.8948   -1.1164    1.3806 C   0  0  0  0  0  0  0  0  0  0  0  0
    7.4978   -1.1295    1.3143 C   0  0  0  0  0  0  0  0  0  0  0  0
    4.4367    3.9021    2.7541 H   0  0  0  0  0  0  0  0  0  0  0  0
    4.3872    3.6787    0.9745 H   0  0  0  0  0  0  0  0  0  0  0  0
    5.9276    3.5237    1.8443 H   0  0  0  0  0  0  0  0  0  0  0  0
    3.1607    2.3707    3.2004 H   0  0  0  0  0  0  0  0  0  0  0  0
    4.7524   -0.9672    0.3347 H   0  0  0  0  0  0  0  0  0  0  0  0
    3.4369   -0.4616    1.3499 H   0  0  0  0  0  0  0  0  0  0  0  0
    4.8434   -0.5571    3.3745 H   0  0  0  0  0  0  0  0  0  0  0  0
    5.3883   -2.9436    2.0216 H   0  0  0  0  0  0  0  0  0  0  0  0
    6.8128   -0.8715    4.6403 H   0  0  0  0  0  0  0  0  0  0  0  0
    9.2703   -0.8532    4.7559 H   0  0  0  0  0  0  0  0  0  0  0  0
    9.4760   -1.1803    0.4646 H   0  0  0  0  0  0  0  0  0  0  0  0
    7.0348   -1.2011    0.3336 H   0  0  0  0  0  0  0  0  0  0  0  0
  1  2  1  0  0  0  0
  1 16  1  0  0  0  0
  1 17  1  0  0  0  0
  1 18  1  0  0  0  0
  2  3  1  0  0  0  0
  2  4  1  0  0  0  0
  3 19  1  0  0  0  0
  4  5  2  0  0  0  0
  4  6  1  0  0  0  0
  6  7  1  0  0  0  0
  6 20  1  0  0  0  0
  6 21  1  0  0  0  0
  7  8  1  0  0  0  0
  7  9  1  0  0  0  0
  7 22  1  0  0  0  0
  8 23  1  0  0  0  0
  9 10  1  0  0  0  0
  9 15  2  0  0  0  0
 10 11  2  0  0  0  0
 10 24  1  0  0  0  0
 11 12  1  0  0  0  0
 11 25  1  0  0  0  0
 12 13  1  0  0  0  0
 12 14  2  0  0  0  0
 14 15  1  0  0  0  0
 14 26  1  0  0  0  0
 15 27  1  0  0  0  0
M  END
>  <Line_Number>
86


> <IC50>
97600

$$$$
