155546402.0
 OpenBabel09092522103D

 55 57  0  0  1  0  0  0  0  0999 V2000
    4.7228   -4.7480   -0.1343 C   0  0  0  0  0  0  0  0  0  0  0  0
    4.5476   -3.4946   -0.8501 N   0  0  0  0  0  0  0  0  0  0  0  0
    3.6135   -3.5087   -1.9038 O   0  0  0  0  0  0  0  0  0  0  0  0
    4.7922   -2.2853   -0.2422 C   0  0  0  0  0  0  0  0  0  0  0  0
    5.2447   -2.2072    0.9037 O   0  0  0  0  0  0  0  0  0  0  0  0
    4.5291   -1.0287   -1.0463 C   0  0  0  0  0  0  0  0  0  0  0  0
    5.3014   -0.9754   -2.3631 C   0  0  3  0  0  0  0  0  0  0  0  0
    4.9218    0.2333   -3.0371 O   0  0  0  0  0  0  0  0  0  0  0  0
    6.8174   -1.0302   -2.3053 C   0  0  0  0  0  0  0  0  0  0  0  0
    7.5628   -1.0336   -1.1241 C   0  0  0  0  0  0  0  0  0  0  0  0
    8.9540   -1.1546   -1.1538 C   0  0  0  0  0  0  0  0  0  0  0  0
    9.6404   -1.2378   -2.3682 C   0  0  0  0  0  0  0  0  0  0  0  0
   11.0090   -1.3110   -2.4488 O   0  0  0  0  0  0  0  0  0  0  0  0
   11.7172   -0.7126   -1.3582 C   0  0  0  0  0  0  0  0  0  0  0  0
   13.0572   -0.2156   -1.8371 C   0  0  0  0  0  0  0  0  0  0  0  0
   13.1159    0.7377   -2.8642 C   0  0  0  0  0  0  0  0  0  0  0  0
   14.3425    1.2454   -3.2898 C   0  0  0  0  0  0  0  0  0  0  0  0
   15.5216    0.8077   -2.6914 C   0  0  0  0  0  0  0  0  0  0  0  0
   15.4753   -0.1371   -1.6670 C   0  0  0  0  0  0  0  0  0  0  0  0
   14.2481   -0.6457   -1.2377 C   0  0  0  0  0  0  0  0  0  0  0  0
    8.9099   -1.2786   -3.5642 C   0  0  0  0  0  0  0  0  0  0  0  0
    9.6058   -1.4617   -4.7374 O   0  0  0  0  0  0  0  0  0  0  0  0
    8.8409   -2.0437   -5.8000 C   0  0  0  0  0  0  0  0  0  0  0  0
    9.6979   -2.7702   -6.8092 C   0  0  0  0  0  0  0  0  0  0  0  0
   10.9241   -3.3495   -6.4581 C   0  0  0  0  0  0  0  0  0  0  0  0
   11.6360   -4.1142   -7.3846 C   0  0  0  0  0  0  0  0  0  0  0  0
   11.1289   -4.3183   -8.6663 C   0  0  0  0  0  0  0  0  0  0  0  0
    9.9094   -3.7502   -9.0244 C   0  0  0  0  0  0  0  0  0  0  0  0
    9.1954   -2.9849   -8.1032 C   0  0  0  0  0  0  0  0  0  0  0  0
    7.5156   -1.1279   -3.5206 C   0  0  0  0  0  0  0  0  0  0  0  0
    4.3050   -5.5852   -0.6974 H   0  0  0  0  0  0  0  0  0  0  0  0
    4.2491   -4.6726    0.8487 H   0  0  0  0  0  0  0  0  0  0  0  0
    5.7963   -4.9025    0.0109 H   0  0  0  0  0  0  0  0  0  0  0  0
    3.0901   -4.3173   -1.7676 H   0  0  0  0  0  0  0  0  0  0  0  0
    4.7915   -0.1588   -0.4294 H   0  0  0  0  0  0  0  0  0  0  0  0
    3.4515   -0.9391   -1.2278 H   0  0  0  0  0  0  0  0  0  0  0  0
    4.9754   -1.7991   -3.0082 H   0  0  0  0  0  0  0  0  0  0  0  0
    5.5097    0.9393   -2.7170 H   0  0  0  0  0  0  0  0  0  0  0  0
    7.0948   -0.9554   -0.1470 H   0  0  0  0  0  0  0  0  0  0  0  0
    9.4757   -1.1986   -0.2023 H   0  0  0  0  0  0  0  0  0  0  0  0
   11.8422   -1.4605   -0.5659 H   0  0  0  0  0  0  0  0  0  0  0  0
   11.1883    0.1572   -0.9445 H   0  0  0  0  0  0  0  0  0  0  0  0
   12.1978    1.0827   -3.3367 H   0  0  0  0  0  0  0  0  0  0  0  0
   14.3737    1.9814   -4.0886 H   0  0  0  0  0  0  0  0  0  0  0  0
   16.4772    1.2020   -3.0258 H   0  0  0  0  0  0  0  0  0  0  0  0
   16.3967   -0.4773   -1.2019 H   0  0  0  0  0  0  0  0  0  0  0  0
   14.2296   -1.3777   -0.4337 H   0  0  0  0  0  0  0  0  0  0  0  0
    8.2929   -1.2395   -6.3064 H   0  0  0  0  0  0  0  0  0  0  0  0
    8.1348   -2.7925   -5.4152 H   0  0  0  0  0  0  0  0  0  0  0  0
   11.3217   -3.2159   -5.4523 H   0  0  0  0  0  0  0  0  0  0  0  0
   12.5845   -4.5591   -7.0921 H   0  0  0  0  0  0  0  0  0  0  0  0
   11.6806   -4.9242   -9.3755 H   0  0  0  0  0  0  0  0  0  0  0  0
    9.5080   -3.9162  -10.0204 H   0  0  0  0  0  0  0  0  0  0  0  0
    8.2338   -2.5696   -8.3956 H   0  0  0  0  0  0  0  0  0  0  0  0
    6.9338   -1.0891   -4.4389 H   0  0  0  0  0  0  0  0  0  0  0  0
  1  2  1  0  0  0  0
  1 31  1  0  0  0  0
  1 32  1  0  0  0  0
  1 33  1  0  0  0  0
  2  3  1  0  0  0  0
  2  4  1  0  0  0  0
  3 34  1  0  0  0  0
  4  5  2  0  0  0  0
  4  6  1  0  0  0  0
  6  7  1  0  0  0  0
  6 35  1  0  0  0  0
  6 36  1  0  0  0  0
  7  8  1  0  0  0  0
  7  9  1  0  0  0  0
  7 37  1  0  0  0  0
  8 38  1  0  0  0  0
  9 10  1  0  0  0  0
  9 30  2  0  0  0  0
 10 11  2  0  0  0  0
 10 39  1  0  0  0  0
 11 12  1  0  0  0  0
 11 40  1  0  0  0  0
 12 13  1  0  0  0  0
 12 21  2  0  0  0  0
 13 14  1  0  0  0  0
 14 15  1  0  0  0  0
 14 41  1  0  0  0  0
 14 42  1  0  0  0  0
 15 16  1  0  0  0  0
 15 20  2  0  0  0  0
 16 17  2  0  0  0  0
 16 43  1  0  0  0  0
 17 18  1  0  0  0  0
 17 44  1  0  0  0  0
 18 19  2  0  0  0  0
 18 45  1  0  0  0  0
 19 20  1  0  0  0  0
 19 46  1  0  0  0  0
 20 47  1  0  0  0  0
 21 22  1  0  0  0  0
 21 30  1  0  0  0  0
 22 23  1  0  0  0  0
 23 24  1  0  0  0  0
 23 48  1  0  0  0  0
 23 49  1  0  0  0  0
 24 25  1  0  0  0  0
 24 29  2  0  0  0  0
 25 26  2  0  0  0  0
 25 50  1  0  0  0  0
 26 27  1  0  0  0  0
 26 51  1  0  0  0  0
 27 28  2  0  0  0  0
 27 52  1  0  0  0  0
 28 29  1  0  0  0  0
 28 53  1  0  0  0  0
 29 54  1  0  0  0  0
 30 55  1  0  0  0  0
M  END
>  <Line_Number>
95


> <IC50>
376000

$$$$
