155534689.0
 OpenBabel09092522103D

 27 27  0  0  1  0  0  0  0  0999 V2000
    1.0205    0.1531   -2.3928 C   0  0  0  0  0  0  0  0  0  0  0  0
    2.4596    0.3194   -2.3642 N   0  0  0  0  0  0  0  0  0  0  0  0
    3.1250   -0.7768   -2.9568 O   0  0  0  0  0  0  0  0  0  0  0  0
    3.0720    0.8775   -1.2584 C   0  0  0  0  0  0  0  0  0  0  0  0
    2.4451    1.4818   -0.3820 O   0  0  0  0  0  0  0  0  0  0  0  0
    4.5815    0.7864   -1.1807 C   0  0  0  0  0  0  0  0  0  0  0  0
    5.2195    1.5969   -2.3067 C   0  0  3  0  0  0  0  0  0  0  0  0
    4.8416    2.9726   -2.2567 O   0  0  0  0  0  0  0  0  0  0  0  0
    6.7320    1.5467   -2.2947 C   0  0  0  0  0  0  0  0  0  0  0  0
    7.4753    2.0593   -1.2176 C   0  0  0  0  0  0  0  0  0  0  0  0
    8.8721    2.0434   -1.2407 C   0  0  0  0  0  0  0  0  0  0  0  0
    9.5463    1.5129   -2.3398 C   0  0  0  0  0  0  0  0  0  0  0  0
    8.8201    1.0021   -3.4129 C   0  0  0  0  0  0  0  0  0  0  0  0
    9.7296    0.2974   -4.9119 Br  0  0  0  0  0  0  0  0  0  0  0  0
    7.4241    1.0144   -3.3945 C   0  0  0  0  0  0  0  0  0  0  0  0
    0.7196   -0.2571   -3.3604 H   0  0  0  0  0  0  0  0  0  0  0  0
    0.5483    1.1286   -2.2436 H   0  0  0  0  0  0  0  0  0  0  0  0
    0.7148   -0.5187   -1.5862 H   0  0  0  0  0  0  0  0  0  0  0  0
    3.1682   -0.4935   -3.8903 H   0  0  0  0  0  0  0  0  0  0  0  0
    4.8933   -0.2640   -1.2021 H   0  0  0  0  0  0  0  0  0  0  0  0
    4.8763    1.1809   -0.1983 H   0  0  0  0  0  0  0  0  0  0  0  0
    4.8624    1.2255   -3.2730 H   0  0  0  0  0  0  0  0  0  0  0  0
    4.7337    3.2312   -1.3254 H   0  0  0  0  0  0  0  0  0  0  0  0
    6.9721    2.4963   -0.3587 H   0  0  0  0  0  0  0  0  0  0  0  0
    9.4340    2.4539   -0.4061 H   0  0  0  0  0  0  0  0  0  0  0  0
   10.6329    1.5118   -2.3547 H   0  0  0  0  0  0  0  0  0  0  0  0
    6.8723    0.6256   -4.2475 H   0  0  0  0  0  0  0  0  0  0  0  0
  1  2  1  0  0  0  0
  1 16  1  0  0  0  0
  1 17  1  0  0  0  0
  1 18  1  0  0  0  0
  2  3  1  0  0  0  0
  2  4  1  0  0  0  0
  3 19  1  0  0  0  0
  4  5  2  0  0  0  0
  4  6  1  0  0  0  0
  6  7  1  0  0  0  0
  6 20  1  0  0  0  0
  6 21  1  0  0  0  0
  7  8  1  0  0  0  0
  7  9  1  0  0  0  0
  7 22  1  0  0  0  0
  8 23  1  0  0  0  0
  9 10  1  0  0  0  0
  9 15  2  0  0  0  0
 10 11  2  0  0  0  0
 10 24  1  0  0  0  0
 11 12  1  0  0  0  0
 11 25  1  0  0  0  0
 12 13  2  0  0  0  0
 12 26  1  0  0  0  0
 13 14  1  0  0  0  0
 13 15  1  0  0  0  0
 15 27  1  0  0  0  0
M  END
>  <Line_Number>
98


> <IC50>
78200

$$$$
