155550012.0
 OpenBabel09092522103D

 31 31  0  0  1  0  0  0  0  0999 V2000
    3.6869   -2.1583    0.6820 C   0  0  0  0  0  0  0  0  0  0  0  0
    4.2838   -0.8989    0.3850 O   0  0  0  0  0  0  0  0  0  0  0  0
    3.9927    0.1365    1.2371 C   0  0  0  0  0  0  0  0  0  0  0  0
    3.5065   -0.0335    2.5397 C   0  0  0  0  0  0  0  0  0  0  0  0
    3.3051    1.0683    3.3741 C   0  0  0  0  0  0  0  0  0  0  0  0
    3.6006    2.3474    2.9208 C   0  0  0  0  0  0  0  0  0  0  0  0
    4.0777    2.5271    1.6245 C   0  0  0  0  0  0  0  0  0  0  0  0
    4.2634    1.4320    0.7579 C   0  0  0  0  0  0  0  0  0  0  0  0
    4.7325    1.7210   -0.6590 C   0  0  3  0  0  0  0  0  0  0  0  0
    5.9821    1.0564   -0.8989 O   0  0  0  0  0  0  0  0  0  0  0  0
    3.7665    1.3013   -1.7691 C   0  0  0  0  0  0  0  0  0  0  0  0
    2.4367    2.0189   -1.7551 C   0  0  0  0  0  0  0  0  0  0  0  0
    2.1662    2.9486   -0.9878 O   0  0  0  0  0  0  0  0  0  0  0  0
    1.5132    1.5710   -2.6689 N   0  0  0  0  0  0  0  0  0  0  0  0
    1.6741    0.7190   -3.8307 C   0  0  0  0  0  0  0  0  0  0  0  0
    0.2752    2.2586   -2.6849 O   0  0  0  0  0  0  0  0  0  0  0  0
    3.9962   -2.8646   -0.0947 H   0  0  0  0  0  0  0  0  0  0  0  0
    2.5948   -2.0839    0.6551 H   0  0  0  0  0  0  0  0  0  0  0  0
    4.0353   -2.5595    1.6386 H   0  0  0  0  0  0  0  0  0  0  0  0
    3.2869   -1.0134    2.9491 H   0  0  0  0  0  0  0  0  0  0  0  0
    2.9254    0.9254    4.3823 H   0  0  0  0  0  0  0  0  0  0  0  0
    3.4537    3.2071    3.5690 H   0  0  0  0  0  0  0  0  0  0  0  0
    4.2888    3.5389    1.2813 H   0  0  0  0  0  0  0  0  0  0  0  0
    4.9401    2.7925   -0.7674 H   0  0  0  0  0  0  0  0  0  0  0  0
    5.9011    0.1723   -0.4943 H   0  0  0  0  0  0  0  0  0  0  0  0
    3.5885    0.2229   -1.7368 H   0  0  0  0  0  0  0  0  0  0  0  0
    4.2473    1.5125   -2.7334 H   0  0  0  0  0  0  0  0  0  0  0  0
    2.6587    0.2490   -3.8555 H   0  0  0  0  0  0  0  0  0  0  0  0
    1.5435    1.3208   -4.7349 H   0  0  0  0  0  0  0  0  0  0  0  0
    0.9021   -0.0543   -3.7998 H   0  0  0  0  0  0  0  0  0  0  0  0
    0.3748    2.8740   -1.9293 H   0  0  0  0  0  0  0  0  0  0  0  0
  1  2  1  0  0  0  0
  1 17  1  0  0  0  0
  1 18  1  0  0  0  0
  1 19  1  0  0  0  0
  2  3  1  0  0  0  0
  3  4  1  0  0  0  0
  3  8  2  0  0  0  0
  4  5  2  0  0  0  0
  4 20  1  0  0  0  0
  5  6  1  0  0  0  0
  5 21  1  0  0  0  0
  6  7  2  0  0  0  0
  6 22  1  0  0  0  0
  7  8  1  0  0  0  0
  7 23  1  0  0  0  0
  8  9  1  0  0  0  0
  9 10  1  0  0  0  0
  9 11  1  0  0  0  0
  9 24  1  0  0  0  0
 10 25  1  0  0  0  0
 11 12  1  0  0  0  0
 11 26  1  0  0  0  0
 11 27  1  0  0  0  0
 12 13  2  0  0  0  0
 12 14  1  0  0  0  0
 14 15  1  0  0  0  0
 14 16  1  0  0  0  0
 15 28  1  0  0  0  0
 15 29  1  0  0  0  0
 15 30  1  0  0  0  0
 16 31  1  0  0  0  0
M  END
>  <Line_Number>
99


> <IC50>
84000

$$$$
